data_global
_cell_length_a 10
_cell_length_b 51.45
_cell_length_c 4.26
_cell_angle_alpha 90
_cell_angle_beta 90
_cell_angle_gamma 90
_symmetry_space_group_name_H-M 'P -1'
loop_
_symmetry_equiv_pos_as_xyz
  'x,y,z'
loop_
_atom_site_label
_atom_site_fract_x
_atom_site_fract_y
_atom_site_fract_z
C 0.5 0.117822 0.66041
C 0.5 0.14126 0.83197
C 0.5 0.117822 0.339589
C 0.5 0.165149 0.66688
C 0.5 0.189183 0.833878
C 0.5 0.14126 0.168029
C 0.5 0.165149 0.33312
C 0.5 0.21307 0.667143
C 0.5 0.236956 0.833224
C 0.5 0.189183 0.166122
C 0.5 0.21307 0.332857
C 0.5 0.260928 0.666538
C 0.5 0.284848 0.833036
C 0.5 0.236956 0.166776
C 0.5 0.260928 0.333462
C 0.5 0.308749 0.666721
C 0.5 0.332688 0.833413
C 0.5 0.284848 0.166964
C 0.5 0.308749 0.333279
C 0.5 0.356589 0.666861
C 0.5 0.380478 0.833316
C 0.5 0.332688 0.166587
C 0.5 0.356589 0.33314
C 0.5 0.4044 0.666625
C 0.5 0.428296 0.833164
C 0.5 0.380478 0.166684
C 0.5 0.4044 0.333375
C 0.5 0.452187 0.666669
C 0.5 0.476107 0.833349
C 0.5 0.428296 0.166837
C 0.5 0.452187 0.333331
C 0.5 0.5 0.66683
C 0.5 0.523894 0.833349
C 0.5 0.476107 0.166651
C 0.5 0.5 0.33317
C 0.5 0.547813 0.666669
C 0.5 0.571705 0.833163
C 0.5 0.523894 0.166651
C 0.5 0.547813 0.333331
C 0.5 0.5956 0.666625
C 0.5 0.619522 0.833316
C 0.5 0.571705 0.166836
C 0.5 0.5956 0.333375
C 0.5 0.643412 0.66686
C 0.5 0.667312 0.833413
C 0.5 0.619522 0.166684
C 0.5 0.643412 0.33314
C 0.5 0.691251 0.66672
C 0.5 0.715152 0.833036
C 0.5 0.667312 0.166587
C 0.5 0.691251 0.33328
C 0.5 0.739072 0.666538
C 0.5 0.763044 0.833223
C 0.5 0.715152 0.166964
C 0.5 0.739072 0.333462
C 0.5 0.78693 0.667143
C 0.5 0.810817 0.833877
C 0.5 0.763044 0.166777
C 0.5 0.78693 0.332857
C 0.5 0.834851 0.66688
C 0.5 0.858739 0.831971
C 0.5 0.810817 0.166123
C 0.5 0.834851 0.33312
C 0.5 0.882177 0.660413
C 0.5 0.858739 0.16803
C 0.5 0.882177 0.339587
H 0.5 0.0992491 0.781795
H 0.5 0.0992491 0.218205
H 0.5 0.90075 0.781794
H 0.5 0.90075 0.218206
