data_global
_cell_length_a 10
_cell_length_b 50.22
_cell_length_c 4.26
_cell_angle_alpha 90
_cell_angle_beta 90
_cell_angle_gamma 90
_symmetry_space_group_name_H-M 'P -1'
loop_
_symmetry_equiv_pos_as_xyz
  'x,y,z'
loop_
_atom_site_label
_atom_site_fract_x
_atom_site_fract_y
_atom_site_fract_z
C 0.5 0.120687 0.660339
C 0.5 0.144713 0.832079
C 0.5 0.120687 0.339661
C 0.5 0.169188 0.666915
C 0.5 0.193805 0.833938
C 0.5 0.144713 0.167921
C 0.5 0.169188 0.333085
C 0.5 0.218289 0.667017
C 0.5 0.242759 0.833199
C 0.5 0.193805 0.166062
C 0.5 0.218289 0.332983
C 0.5 0.267306 0.666472
C 0.5 0.291824 0.833188
C 0.5 0.242759 0.166801
C 0.5 0.267306 0.333528
C 0.5 0.316312 0.66674
C 0.5 0.340824 0.833475
C 0.5 0.291824 0.166812
C 0.5 0.316312 0.33326
C 0.5 0.365323 0.666688
C 0.5 0.3898 0.833291
C 0.5 0.340824 0.166525
C 0.5 0.365323 0.333313
C 0.5 0.414292 0.666571
C 0.5 0.438787 0.833357
C 0.5 0.3898 0.166709
C 0.5 0.414292 0.333429
C 0.5 0.463267 0.666706
C 0.5 0.487753 0.833392
C 0.5 0.438787 0.166643
C 0.5 0.463267 0.333294
C 0.5 0.512247 0.666608
C 0.5 0.536732 0.833294
C 0.5 0.487753 0.166608
C 0.5 0.512247 0.333392
C 0.5 0.561213 0.666643
C 0.5 0.585708 0.833429
C 0.5 0.536732 0.166706
C 0.5 0.561213 0.333358
C 0.5 0.6102 0.666709
C 0.5 0.634677 0.833313
C 0.5 0.585708 0.166571
C 0.5 0.6102 0.333291
C 0.5 0.659176 0.666525
C 0.5 0.683688 0.83326
C 0.5 0.634677 0.166688
C 0.5 0.659176 0.333475
C 0.5 0.708176 0.666812
C 0.5 0.732695 0.833528
C 0.5 0.683688 0.16674
C 0.5 0.708176 0.333188
C 0.5 0.757242 0.6668
C 0.5 0.781711 0.832984
C 0.5 0.732695 0.166472
C 0.5 0.757242 0.3332
C 0.5 0.806195 0.666061
C 0.5 0.830812 0.833088
C 0.5 0.781711 0.167016
C 0.5 0.806195 0.333939
C 0.5 0.855287 0.667919
C 0.5 0.879312 0.839673
C 0.5 0.830812 0.166912
C 0.5 0.855287 0.33208
C 0.5 0.879312 0.160326
H 0.5 0.10166 0.781716
H 0.5 0.10166 0.218284
H 0.5 0.89834 0.718282
H 0.5 0.89834 0.281717
