data_global
_cell_length_a 10
_cell_length_b 30.54
_cell_length_c 4.26
_cell_angle_alpha 90
_cell_angle_beta 90
_cell_angle_gamma 90
_symmetry_space_group_name_H-M 'P -1'
loop_
_symmetry_equiv_pos_as_xyz
  'x,y,z'
loop_
_atom_site_label
_atom_site_fract_x
_atom_site_fract_y
_atom_site_fract_z
C 0.500001 0.199117 0.658473
C 0.5 0.237594 0.834195
C 0.5 0.199117 0.341525
C 0.5 0.277833 0.666329
C 0.5 0.318309 0.833787
C 0.5 0.237594 0.165803
C 0.5 0.277833 0.33367
C 0.5 0.358649 0.667069
C 0.500001 0.398971 0.833245
C 0.5 0.318309 0.166212
C 0.5 0.358649 0.33293
C 0.500001 0.439415 0.666427
C 0.500001 0.479828 0.833112
C 0.500001 0.398971 0.166755
C 0.500001 0.439415 0.333573
C 0.5 0.52017 0.666888
C 0.5 0.560584 0.833573
C 0.500001 0.479828 0.166888
C 0.5 0.52017 0.333112
C 0.5 0.601028 0.666755
C 0.499999 0.641351 0.83293
C 0.5 0.560584 0.166427
C 0.5 0.601028 0.333245
C 0.499999 0.681691 0.666212
C 0.499999 0.722167 0.833673
C 0.499999 0.641351 0.16707
C 0.499999 0.681691 0.333788
C 0.499999 0.762406 0.665801
C 0.499999 0.800884 0.841531
C 0.499999 0.722167 0.166327
C 0.499999 0.762406 0.334199
C 0.5 0.800884 0.158469
F 0.500002 0.157772 0.75856
F 0.5 0.157772 0.241442
F 0.5 0.842229 0.74144
F 0.500002 0.842229 0.258562
