data_global
_cell_length_a 10
_cell_length_b 29.31
_cell_length_c 4.26
_cell_angle_alpha 90
_cell_angle_beta 90
_cell_angle_gamma 90
_symmetry_space_group_name_H-M 'P -1'
loop_
_symmetry_equiv_pos_as_xyz
  'x,y,z'
loop_
_atom_site_label
_atom_site_fract_x
_atom_site_fract_y
_atom_site_fract_z
C 0.499999 0.206774 0.660499
C 0.499999 0.247891 0.83184
C 0.499999 0.206774 0.339501
C 0.499999 0.289821 0.666842
C 0.5 0.332033 0.833809
C 0.499999 0.247891 0.168161
C 0.499999 0.289821 0.333159
C 0.500001 0.373946 0.667292
C 0.500002 0.415883 0.833288
C 0.5 0.332033 0.166191
C 0.500001 0.373946 0.332708
C 0.500002 0.458013 0.666628
C 0.500001 0.5 0.832775
C 0.500002 0.415883 0.166711
C 0.500002 0.458013 0.333372
C 0.5 0.541987 0.666628
C 0.499999 0.584117 0.833288
C 0.500001 0.5 0.167225
C 0.5 0.541987 0.333371
C 0.499999 0.626054 0.667291
C 0.5 0.667967 0.833809
C 0.499999 0.584117 0.166711
C 0.499999 0.626054 0.332709
C 0.5 0.710179 0.666842
C 0.5 0.752109 0.83184
C 0.5 0.667967 0.166191
C 0.5 0.710179 0.333159
C 0.5 0.793225 0.660498
C 0.5 0.752109 0.168161
C 0.5 0.793225 0.339503
H 0.499999 0.174188 0.78207
H 0.5 0.174188 0.217929
H 0.499999 0.825812 0.782071
H 0.499999 0.825812 0.21793
