data_global
_cell_length_a 10
_cell_length_b 30
_cell_length_c 12.78
_cell_angle_alpha 90
_cell_angle_beta 90
_cell_angle_gamma 90
_symmetry_space_group_name_H-M 'P -1'
loop_
_symmetry_equiv_pos_as_xyz
  'x,y,z'
loop_
_atom_site_label
_atom_site_fract_x
_atom_site_fract_y
_atom_site_fract_z
C 0.5 0.253589 0.0533761
C 0.5 0.293814 0.110595
C 0.499999 0.334959 0.0556302
C 0.499999 0.376194 0.110886
C 0.499999 0.417435 0.0554058
C 0.499998 0.458749 0.110648
C 0.499998 0.499999 0.055768
C 0.499998 0.54125 0.110644
C 0.499998 0.582565 0.0554114
C 0.499999 0.623807 0.110889
C 0.500001 0.665043 0.0556347
C 0.500002 0.706189 0.110598
C 0.500002 0.746413 0.0533876
C 0.500001 0.253319 0.38655
C 0.500001 0.293397 0.443894
C 0.500002 0.253445 0.279469
C 0.500002 0.334421 0.388633
C 0.500001 0.375817 0.443526
C 0.500001 0.293615 0.222247
C 0.500002 0.33475 0.277387
C 0.500001 0.415336 0.386674
C 0.500001 0.375999 0.221678
C 0.5 0.416957 0.27794
C 0.499999 0.459031 0.221936
C 0.499998 0.5 0.273579
C 0.499998 0.584664 0.386675
C 0.500001 0.624182 0.44353
C 0.499997 0.540969 0.221937
C 0.499998 0.583044 0.277937
C 0.500003 0.66558 0.388634
C 0.500003 0.706602 0.443898
C 0.5 0.624001 0.221677
C 0.500002 0.665251 0.27739
C 0.500003 0.746679 0.386554
C 0.500004 0.706385 0.222248
C 0.500004 0.746554 0.279472
C 0.499999 0.253445 0.720534
C 0.499999 0.293616 0.777752
C 0.499999 0.253319 0.613448
C 0.499999 0.33475 0.722614
C 0.499998 0.375999 0.778321
C 0.5 0.293397 0.556106
C 0.5 0.334421 0.611364
C 0.499999 0.416957 0.722059
C 0.499999 0.459031 0.778063
C 0.5 0.375818 0.556471
C 0.5 0.415336 0.613324
C 0.499999 0.5 0.72642
C 0.499999 0.540969 0.778063
C 0.5 0.583044 0.722063
C 0.5 0.624001 0.778324
C 0.5 0.584664 0.613323
C 0.5 0.665251 0.722611
C 0.5 0.706385 0.777753
C 0.500001 0.624182 0.556468
C 0.500001 0.66558 0.611364
C 0.499999 0.746553 0.720532
C 0.500002 0.706602 0.556102
C 0.5 0.746679 0.613445
C 0.499999 0.253589 0.946623
C 0.499999 0.293814 0.889405
C 0.499999 0.334959 0.944371
C 0.499998 0.376194 0.889114
C 0.499998 0.417435 0.944595
C 0.499999 0.458749 0.889351
C 0.499999 0.499999 0.944232
C 0.499999 0.54125 0.889356
C 0.499999 0.582565 0.94459
C 0.499999 0.623807 0.889112
C 0.5 0.665043 0.944368
C 0.5 0.706188 0.889403
C 0.5 0.746412 0.946613
H 0.5 0.221737 0.90616
H 0.5 0.778263 0.906162
H 0.500001 0.446608 0.42918
H 0.499999 0.500001 0.358461
H 0.499997 0.55339 0.429174
H 0.500001 0.446608 0.570819
H 0.499999 0.500001 0.641537
H 0.499999 0.55339 0.570826
H 0.5 0.221737 0.093838
H 0.500003 0.778264 0.0938358
H 0.500001 0.221385 0.426754
H 0.500002 0.221563 0.239128
H 0.500002 0.778612 0.426758
H 0.500003 0.778435 0.239129
H 0.499999 0.221563 0.760874
H 0.499999 0.221385 0.573248
H 0.499997 0.778434 0.760874
H 0.5 0.778612 0.573245
