data_global
_cell_length_a 10
_cell_length_b 42.84
_cell_length_c 4.26
_cell_angle_alpha 90
_cell_angle_beta 90
_cell_angle_gamma 90
_symmetry_space_group_name_H-M 'P -1'
loop_
_symmetry_equiv_pos_as_xyz
  'x,y,z'
loop_
_atom_site_label
_atom_site_fract_x
_atom_site_fract_y
_atom_site_fract_z
C 0.5 0.141178 0.666667
C 0.5 0.169883 0.833333
C 0.5 0.141178 0.333333
C 0.5 0.198589 0.666667
C 0.5 0.227295 0.833333
C 0.5 0.169883 0.166667
C 0.5 0.198589 0.333333
C 0.5 0.256001 0.666667
C 0.5 0.284707 0.833333
C 0.5 0.227295 0.166667
C 0.5 0.256001 0.333333
C 0.5 0.313412 0.666667
C 0.5 0.342118 0.833333
C 0.5 0.284707 0.166667
C 0.5 0.313412 0.333333
C 0.5 0.370824 0.666667
C 0.5 0.39953 0.833333
C 0.5 0.342118 0.166667
C 0.5 0.370824 0.333333
C 0.5 0.428236 0.666667
C 0.5 0.456941 0.833333
C 0.5 0.39953 0.166667
C 0.5 0.428236 0.333333
C 0.5 0.485647 0.666667
C 0.5 0.514353 0.833333
C 0.5 0.456941 0.166667
C 0.5 0.485647 0.333333
C 0.5 0.543059 0.666667
C 0.5 0.571764 0.833333
C 0.5 0.514353 0.166667
C 0.5 0.543059 0.333333
C 0.5 0.60047 0.666667
C 0.5 0.629176 0.833333
C 0.5 0.571764 0.166667
C 0.5 0.60047 0.333333
C 0.5 0.657882 0.666667
C 0.5 0.686588 0.833333
C 0.5 0.629176 0.166667
C 0.5 0.657882 0.333333
C 0.5 0.715293 0.666667
C 0.5 0.743999 0.833333
C 0.5 0.686588 0.166667
C 0.5 0.715293 0.333333
C 0.5 0.772705 0.666667
C 0.5 0.801411 0.833333
C 0.5 0.743999 0.166667
C 0.5 0.772705 0.333333
C 0.5 0.830117 0.666667
C 0.5 0.858822 0.833333
C 0.5 0.801411 0.166667
C 0.5 0.830117 0.333333
C 0.5 0.858822 0.166667
H 0.5 0.119143 0.794601
H 0.5 0.119143 0.205399
H 0.5 0.880857 0.705399
H 0.5 0.880857 0.294601
