data_global
_cell_length_a 10
_cell_length_b 53.91
_cell_length_c 4.26
_cell_angle_alpha 90
_cell_angle_beta 90
_cell_angle_gamma 90
_symmetry_space_group_name_H-M 'P -1'
loop_
_symmetry_equiv_pos_as_xyz
  'x,y,z'
loop_
_atom_site_label
_atom_site_fract_x
_atom_site_fract_y
_atom_site_fract_z
C 0.5 0.112436 0.660335
C 0.5 0.134815 0.832069
C 0.5 0.112436 0.339665
C 0.5 0.157614 0.666909
C 0.5 0.180546 0.833931
C 0.5 0.134815 0.167932
C 0.5 0.157614 0.333091
C 0.5 0.203354 0.66703
C 0.5 0.226149 0.8332
C 0.5 0.180546 0.166069
C 0.5 0.203354 0.33297
C 0.5 0.249017 0.666478
C 0.5 0.271856 0.83317
C 0.5 0.226149 0.1668
C 0.5 0.249017 0.333522
C 0.5 0.294668 0.66674
C 0.5 0.317504 0.833471
C 0.5 0.271856 0.16683
C 0.5 0.294668 0.33326
C 0.5 0.340325 0.666707
C 0.5 0.363126 0.833292
C 0.5 0.317504 0.166529
C 0.5 0.340325 0.333294
C 0.5 0.385943 0.666573
C 0.5 0.40876 0.833336
C 0.5 0.363126 0.166708
C 0.5 0.385943 0.333427
C 0.5 0.431564 0.666706
C 0.5 0.454375 0.833394
C 0.5 0.40876 0.166664
C 0.5 0.431564 0.333295
C 0.5 0.477192 0.666635
C 0.5 0.5 0.833296
C 0.5 0.454375 0.166607
C 0.5 0.477192 0.333365
C 0.5 0.522807 0.666635
C 0.5 0.545625 0.833393
C 0.5 0.5 0.166704
C 0.5 0.522808 0.333365
C 0.5 0.568436 0.666706
C 0.5 0.59124 0.833335
C 0.5 0.545625 0.166607
C 0.5 0.568436 0.333294
C 0.5 0.614057 0.666573
C 0.5 0.636874 0.833292
C 0.5 0.59124 0.166665
C 0.5 0.614057 0.333427
C 0.5 0.659675 0.666707
C 0.5 0.682496 0.83347
C 0.5 0.636874 0.166708
C 0.5 0.659675 0.333293
C 0.5 0.705333 0.66674
C 0.5 0.728144 0.833171
C 0.5 0.682497 0.16653
C 0.5 0.705333 0.33326
C 0.5 0.750983 0.666478
C 0.5 0.773851 0.8332
C 0.5 0.728144 0.166829
C 0.5 0.750983 0.333522
C 0.5 0.796646 0.66703
C 0.5 0.819453 0.83393
C 0.5 0.773851 0.1668
C 0.5 0.796646 0.332969
C 0.5 0.842386 0.666912
C 0.5 0.865185 0.832068
C 0.5 0.819453 0.16607
C 0.5 0.842386 0.333088
C 0.5 0.887564 0.660345
C 0.5 0.865185 0.167932
C 0.5 0.887564 0.339655
H 0.5 0.09471 0.781726
H 0.5 0.09471 0.218275
H 0.5 0.905289 0.781723
H 0.5 0.905289 0.218277
