data_global
_cell_length_a 10
_cell_length_b 19.47
_cell_length_c 4.26
_cell_angle_alpha 90
_cell_angle_beta 90
_cell_angle_gamma 90
_symmetry_space_group_name_H-M 'P -1'
loop_
_symmetry_equiv_pos_as_xyz
  'x,y,z'
loop_
_atom_site_label
_atom_site_fract_x
_atom_site_fract_y
_atom_site_fract_z
C 0.5 0.311181 0.66007
C 0.5 0.373176 0.832151
C 0.5 0.311181 0.33993
C 0.5 0.436331 0.667189
C 0.5 0.5 0.834391
C 0.5 0.373176 0.167848
C 0.5 0.436331 0.33281
C 0.5 0.563668 0.66719
C 0.5 0.626824 0.832151
C 0.5 0.5 0.165608
C 0.5 0.563668 0.33281
C 0.5 0.68882 0.66007
C 0.5 0.626824 0.167849
C 0.5 0.68882 0.33993
H 0.5 0.26242 0.783543
H 0.5 0.26242 0.216457
H 0.5 0.73758 0.783544
H 0.5 0.73758 0.216457
