data_2Z_2A_W9
_audit_creation_method                 'DeviceStudio'
_symmetry_space_group_name_H-M         'PM'
_symmetry_Int_Tables_number            6
_symmetry_cell_setting                 Orthorhombic
loop_
_symmetry_equiv_pos_as_xyz
x,y,z
-x,y,z
_cell_length_a                         10
_cell_length_b                         30
_cell_length_c                         13.01
_cell_angle_alpha                      90
_cell_angle_beta                       90
_cell_angle_gamma                      90
loop_
_atom_site_label
_atom_site_type_symbol
_atom_site_fract_x
_atom_site_fract_y
_atom_site_fract_z
C	C	0.5	0.321087	0.321327
C	C	0.5	0.347915	0.642871
C	C	0.5	0.374742	0.964415
C	C	0.5	0.35687	0.249879
C	C	0.5	0.383697	0.571423
C	C	0.5	0.410524	0.892967
C	C	0.5	0.401595	0.285612
C	C	0.5	0.428422	0.607156
C	C	0.5	0.455249	0.928699
C	C	0.5	0.33003	0.428509
C	C	0.5	0.356857	0.750053
C	C	0.5	0.347927	0.142698
C	C	0.5	0.374755	0.464242
C	C	0.5	0.401582	0.785785
C	C	0.5	0.437377	0.214163
C	C	0.5	0.464204	0.535707
C	C	0.5	0.491032	0.857251
C	C	0.5	0.482102	0.249896
C	C	0.5	0.508929	0.57144
C	C	0.5	0.535756	0.892984
C	C	0.5	0.38371	0.0712493
C	C	0.5	0.410537	0.392793
C	C	0.5	0.437364	0.714337
C	C	0.5	0.428435	0.106982
C	C	0.5	0.455262	0.428526
C	C	0.5	0.482089	0.75007
C	C	0.5	0.517884	0.178448
C	C	0.5	0.544712	0.499991
C	C	0.5	0.571539	0.821535
C	C	0.5	0.562609	0.21418
C	C	0.5	0.589437	0.535724
C	C	0.5	0.616264	0.857268
C	C	0.5	0.464217	0.0355336
C	C	0.5	0.491044	0.357077
C	C	0.5	0.517872	0.678621
C	C	0.5	0.508942	0.0712664
C	C	0.5	0.535769	0.39281
C	C	0.5	0.562597	0.714354
C	C	0.5	0.598392	0.142732
C	C	0.5	0.625219	0.464276
C	C	0.5	0.652046	0.78582
C	C	0.5	0.643117	0.178465
C	C	0.5	0.544725	0.999818
C	C	0.5	0.571552	0.321362
C	C	0.5	0.598379	0.642905
C	C	0.5	0.625206	0.964449
C	C	0.5	0.589449	0.0355507
C	C	0.5	0.616277	0.357095
C	C	0.5	0.643104	0.678638
C	C	0.5	0.669931	0.000180006
C	C	0.5	0.678899	0.107016
C	C	0.5	0.652059	0.285646
H	H	0.5	0.286756	0.293899
H	H	0.5	0.313583	0.615443
H	H	0.5	0.340397	0.937076
H	H	0.5	0.302563	0.483353
H	H	0.5	0.32939	0.804897
H	H	0.5	0.313596	0.115269
H	H	0.5	0.65955	0.491704
H	H	0.5	0.686377	0.813248
H	H	0.5	0.670571	0.623794
H	H	0.5	0.697398	0.945338
H	H	0.5	0.713244	0.134355
H	H	0.5	0.68639	0.313075
