data_global
_cell_length_a 10
_cell_length_b 55.14
_cell_length_c 4.26
_cell_angle_alpha 90
_cell_angle_beta 90
_cell_angle_gamma 90
_symmetry_space_group_name_H-M 'P -1'
loop_
_symmetry_equiv_pos_as_xyz
  'x,y,z'
loop_
_atom_site_label
_atom_site_fract_x
_atom_site_fract_y
_atom_site_fract_z
C 0.5 0.109943 0.660396
C 0.5 0.131814 0.831986
C 0.5 0.109943 0.339604
C 0.5 0.154103 0.666881
C 0.5 0.176529 0.833885
C 0.5 0.131814 0.168014
C 0.5 0.154103 0.333119
C 0.5 0.198819 0.667131
C 0.5 0.221106 0.833219
C 0.5 0.176529 0.166116
C 0.5 0.198819 0.332869
C 0.5 0.243472 0.666529
C 0.5 0.265793 0.833049
C 0.5 0.221106 0.166781
C 0.5 0.243472 0.333471
C 0.5 0.288094 0.666724
C 0.5 0.31043 0.833422
C 0.5 0.265793 0.16695
C 0.5 0.288094 0.333276
C 0.5 0.332733 0.666846
C 0.5 0.355024 0.833312
C 0.5 0.31043 0.166578
C 0.5 0.332733 0.333154
C 0.5 0.377344 0.666615
C 0.5 0.399642 0.833181
C 0.5 0.355024 0.166688
C 0.5 0.377344 0.333385
C 0.5 0.421934 0.666674
C 0.5 0.444251 0.833359
C 0.5 0.399642 0.166819
C 0.5 0.421934 0.333326
C 0.5 0.466547 0.666811
C 0.5 0.488842 0.83334
C 0.5 0.444251 0.166641
C 0.5 0.466547 0.333189
C 0.5 0.511158 0.66666
C 0.5 0.533453 0.833189
C 0.5 0.488842 0.16666
C 0.5 0.511158 0.33334
C 0.5 0.55575 0.666641
C 0.5 0.578067 0.833325
C 0.5 0.533453 0.166811
C 0.5 0.55575 0.333359
C 0.5 0.600359 0.666819
C 0.5 0.622657 0.833385
C 0.5 0.578067 0.166674
C 0.5 0.600359 0.333181
C 0.5 0.644977 0.666688
C 0.5 0.667267 0.833154
C 0.5 0.622657 0.166615
C 0.5 0.644977 0.333312
C 0.5 0.68957 0.666578
C 0.5 0.711906 0.833276
C 0.5 0.667267 0.166845
C 0.5 0.68957 0.333422
C 0.5 0.734207 0.66695
C 0.5 0.756527 0.833471
C 0.5 0.711906 0.166724
C 0.5 0.734207 0.33305
C 0.5 0.778894 0.666781
C 0.5 0.801181 0.832869
C 0.5 0.756527 0.166529
C 0.5 0.778894 0.333219
C 0.5 0.823471 0.666116
C 0.5 0.845896 0.833117
C 0.5 0.801181 0.167131
C 0.5 0.823471 0.333884
C 0.5 0.868185 0.668015
C 0.5 0.890056 0.839596
C 0.5 0.845896 0.166883
C 0.5 0.868185 0.331985
C 0.5 0.890056 0.160404
H 0.5 0.0926122 0.781777
H 0.5 0.0926123 0.218223
H 0.5 0.907387 0.718223
H 0.5 0.907387 0.281777
