data_AGNR_10_Defect_G
_audit_creation_method                 'DeviceStudio'
_symmetry_space_group_name_H-M         'PM'
_symmetry_Int_Tables_number            6
_symmetry_cell_setting                 Orthorhombic
loop_
_symmetry_equiv_pos_as_xyz
x,y,z
-x,y,z
_cell_length_a                         10
_cell_length_b                         21.0678
_cell_length_c                         17.01
_cell_angle_alpha                      90
_cell_angle_beta                       90
_cell_angle_gamma                      90
loop_
_atom_site_label
_atom_site_type_symbol
_atom_site_fract_x
_atom_site_fract_y
_atom_site_fract_z
C	C	0.5	0.237329	0.166961
C	C	0.5	0.237329	0.417402
C	C	0.5	0.237329	0.667843
C	C	0.5	0.237329	0.918284
C	C	0.5	0.2957	0.2087
C	C	0.5	0.2957	0.459141
C	C	0.5	0.2957	0.709582
C	C	0.5	0.2957	0.960023
C	C	0.5	0.237329	0.0834803
C	C	0.5	0.237329	0.333921
C	C	0.5	0.237329	0.584362
C	C	0.5	0.237329	0.834803
C	C	0.5	0.354072	0.166961
C	C	0.5	0.354072	0.417402
C	C	0.5	0.354072	0.667843
C	C	0.5	0.354072	0.918284
C	C	0.5	0.412443	0.2087
C	C	0.5	0.412443	0.459141
C	C	0.5	0.412443	0.709582
C	C	0.5	0.412443	0.960023
C	C	0.5	0.2957	0.0417402
C	C	0.5	0.2957	0.292181
C	C	0.5	0.2957	0.542622
C	C	0.5	0.2957	0.793063
C	C	0.5	0.354072	0.0834803
C	C	0.5	0.354072	0.333921
C	C	0.5	0.354072	0.584362
C	C	0.5	0.354072	0.834803
C	C	0.5	0.470814	0.166961
C	C	0.5	0.470814	0.417402
C	C	0.5	0.470814	0.667843
C	C	0.5	0.470814	0.918284
C	C	0.5	0.529186	0.2087
C	C	0.5	0.529186	0.459141
C	C	0.5	0.529186	0.709582
C	C	0.5	0.529186	0.960023
C	C	0.5	0.412443	0.0417402
C	C	0.5	0.412443	0.292181
C	C	0.5	0.412443	0.542622
C	C	0.5	0.412443	0.793063
C	C	0.5	0.470814	0.0834803
C	C	0.5	0.470814	0.333921
C	C	0.5	0.470814	0.584362
C	C	0.5	0.470814	0.834803
C	C	0.5	0.587557	0.166961
C	C	0.5	0.587557	0.417402
C	C	0.5	0.587557	0.667843
C	C	0.5	0.587557	0.918284
C	C	0.5	0.645928	0.2087
C	C	0.5	0.645928	0.459141
C	C	0.5	0.645928	0.709582
C	C	0.5	0.645928	0.960023
C	C	0.5	0.529186	0.0417402
C	C	0.5	0.529186	0.292181
C	C	0.5	0.529186	0.542622
C	C	0.5	0.529186	0.793063
C	C	0.5	0.587557	0.0834803
C	C	0.5	0.587557	0.333921
C	C	0.5	0.587557	0.584362
C	C	0.5	0.587557	0.834803
C	C	0.5	0.7043	0.166961
C	C	0.5	0.7043	0.417402
C	C	0.5	0.7043	0.667843
C	C	0.5	0.7043	0.918284
C	C	0.5	0.762671	0.2087
C	C	0.5	0.762671	0.960023
C	C	0.5	0.645928	0.0417402
C	C	0.5	0.645928	0.292181
C	C	0.5	0.645928	0.542622
C	C	0.5	0.645928	0.793063
C	C	0.5	0.7043	0.0834803
C	C	0.5	0.7043	0.333921
C	C	0.5	0.7043	0.584362
C	C	0.5	0.7043	0.834803
C	C	0.5	0.762671	0.0417402
C	C	0.5	0.762671	0.292181
C	C	0.5	0.762671	0.793063
H	H	0.5	0.192523	0.199
H	H	0.5	0.192523	0.449441
H	H	0.5	0.192523	0.699882
H	H	0.5	0.192523	0.950323
H	H	0.5	0.192523	0.0514404
H	H	0.5	0.192523	0.301881
H	H	0.5	0.192523	0.552322
H	H	0.5	0.192523	0.802763
H	H	0.5	0.807477	0.176661
H	H	0.5	0.807477	0.927984
H	H	0.5	0.807477	0.0737801
H	H	0.5	0.807477	0.324221
H	H	0.5	0.807477	0.825103
H	H	0.5	0.749106	0.449441
H	H	0.5	0.749106	0.699882
H	H	0.5	0.749106	0.552322
H	H	0.5	0.762671	0.728983
