data_global
_cell_length_a 10
_cell_length_b 35.46
_cell_length_c 4.26
_cell_angle_alpha 90
_cell_angle_beta 90
_cell_angle_gamma 90
_symmetry_space_group_name_H-M 'P -1'
loop_
_symmetry_equiv_pos_as_xyz
  'x,y,z'
loop_
_atom_site_label
_atom_site_fract_x
_atom_site_fract_y
_atom_site_fract_z
C 0.480015 0.171099 0.657819
C 0.494074 0.204393 0.833225
C 0.514309 0.171611 0.344566
C 0.50074 0.239188 0.666022
C 0.501547 0.274047 0.833299
C 0.504293 0.204504 0.16636
C 0.499609 0.239274 0.333839
C 0.500962 0.30873 0.66697
C 0.500321 0.343513 0.833229
C 0.499356 0.274076 0.166431
C 0.49986 0.308748 0.332685
C 0.499883 0.378343 0.666581
C 0.499796 0.413073 0.832686
C 0.500057 0.343529 0.16641
C 0.500056 0.378353 0.332988
C 0.499926 0.447853 0.665954
C 0.500004 0.482661 0.832
C 0.500006 0.413082 0.166601
C 0.499975 0.447872 0.332705
C 0.499978 0.517381 0.665296
C 0.500002 0.552177 0.831654
C 0.499993 0.482652 0.165708
C 0.500004 0.517396 0.331572
C 0.500141 0.586967 0.665456
C 0.500158 0.621678 0.832003
C 0.499951 0.552186 0.164939
C 0.499899 0.586955 0.33154
C 0.499792 0.656502 0.66545
C 0.499224 0.691283 0.831682
C 0.499953 0.621691 0.165558
C 0.500094 0.656499 0.332326
C 0.498893 0.725946 0.665266
C 0.499848 0.7608 0.8324
C 0.50043 0.69126 0.165951
C 0.501138 0.725929 0.332134
C 0.505886 0.795581 0.664909
C 0.518828 0.828895 0.840218
C 0.500876 0.760713 0.164543
C 0.495428 0.795482 0.331834
C 0.484322 0.828339 0.153347
O 0.440552 0.13586 0.747809
O 0.553083 0.136252 0.237805
O 0.445043 0.863676 0.259778
O 0.557865 0.864154 0.749622
H 0.479154 0.129889 0.963038
H 0.526981 0.119968 0.418952
H 0.470925 0.879862 0.0777414
H 0.519369 0.870078 0.534155
