data_global
_cell_length_a 10
_cell_length_b 30
_cell_length_c 15.36
_cell_angle_alpha 90
_cell_angle_beta 90
_cell_angle_gamma 90
_symmetry_space_group_name_H-M 'P -1'
loop_
_symmetry_equiv_pos_as_xyz
  'x,y,z'
loop_
_atom_site_label
_atom_site_fract_x
_atom_site_fract_y
_atom_site_fract_z
C 0.5 0.362672 0.501634
C 0.5 0.397902 0.772616
C 0.5 0.374989 0.261786
C 0.5 0.407997 0.53041
C 0.5 0.442903 0.800294
C 0.5 0.351774 0.415478
C 0.5 0.386706 0.686363
C 0.5 0.421606 0.955773
C 0.5 0.408431 0.197432
C 0.5 0.442314 0.467038
C 0.5 0.476872 0.737094
C 0.5 0.454479 0.223878
C 0.5 0.488196 0.493154
C 0.5 0.523138 0.762918
C 0.5 0.38546 0.349962
C 0.5 0.419696 0.620617
C 0.5 0.454191 0.892091
C 0.5 0.398335 0.108356
C 0.5 0.431327 0.377036
C 0.5 0.465457 0.646627
C 0.5 0.500348 0.917314
C 0.5 0.488778 0.160498
C 0.5 0.522145 0.428977
C 0.5 0.557107 0.699717
C 0.5 0.592013 0.969601
C 0.5 0.534543 0.186576
C 0.5 0.568126 0.454749
C 0.5 0.602109 0.727395
C 0.5 0.637338 0.998376
C 0.5 0.431883 0.0452593
C 0.5 0.465465 0.313432
C 0.5 0.499661 0.582698
C 0.5 0.534552 0.853385
C 0.5 0.477864 0.0710325
C 0.5 0.51123 0.33951
C 0.5 0.545819 0.60792
C 0.5 0.580313 0.879394
C 0.5 0.568681 0.122973
C 0.5 0.601675 0.391651
C 0.5 0.614548 0.150046
C 0.5 0.511813 0.00685619
C 0.5 0.545529 0.27613
C 0.5 0.578404 0.544237
C 0.5 0.613303 0.813648
C 0.5 0.557695 0.032971
C 0.5 0.591577 0.302575
C 0.5 0.648236 0.084533
C 0.5 0.625019 0.238222
H 0.5 0.335848 0.549282
H 0.5 0.371128 0.820311
H 0.5 0.340039 0.241813
H 0.5 0.316902 0.395175
H 0.5 0.351596 0.668772
H 0.5 0.386414 0.938582
H 0.5 0.363481 0.087798
H 0.5 0.628884 0.679701
H 0.5 0.664163 0.950731
H 0.5 0.63653 0.412206
H 0.5 0.613596 0.561429
H 0.5 0.648413 0.831243
H 0.5 0.683108 0.104839
H 0.5 0.65997 0.258197
