data_AGNR_OH_25
_audit_creation_method                 'DeviceStudio'
_symmetry_space_group_name_H-M         'P1'
_symmetry_Int_Tables_number            1
_symmetry_cell_setting                 Orthorhombic
loop_
_symmetry_equiv_pos_as_xyz
x,y,z
_cell_length_a                         10
_cell_length_b                         41.61
_cell_length_c                         4.26
_cell_angle_alpha                      90
_cell_angle_beta                       90
_cell_angle_gamma                      90
loop_
_atom_site_label
_atom_site_type_symbol
_atom_site_fract_x
_atom_site_fract_y
_atom_site_fract_z
C	C	0.5	0.145348	0.666667
C	C	0.5	0.174902	0.833333
C	C	0.5	0.145348	0.333333
C	C	0.5	0.204457	0.666667
C	C	0.5	0.234011	0.833333
C	C	0.5	0.174902	0.166667
C	C	0.5	0.204457	0.333333
C	C	0.5	0.263565	0.666667
C	C	0.5	0.29312	0.833333
C	C	0.5	0.234011	0.166667
C	C	0.5	0.263565	0.333333
C	C	0.5	0.322674	0.666667
C	C	0.5	0.352228	0.833333
C	C	0.5	0.29312	0.166667
C	C	0.5	0.322674	0.333333
C	C	0.5	0.381783	0.666667
C	C	0.5	0.411337	0.833333
C	C	0.5	0.352228	0.166667
C	C	0.5	0.381783	0.333333
C	C	0.5	0.440891	0.666667
C	C	0.5	0.470446	0.833333
C	C	0.5	0.411337	0.166667
C	C	0.5	0.440891	0.333333
C	C	0.5	0.5	0.666667
C	C	0.5	0.529554	0.833333
C	C	0.5	0.470446	0.166667
C	C	0.5	0.5	0.333333
C	C	0.5	0.559109	0.666667
C	C	0.5	0.588663	0.833333
C	C	0.5	0.529554	0.166667
C	C	0.5	0.559109	0.333333
C	C	0.5	0.618217	0.666667
C	C	0.5	0.647772	0.833333
C	C	0.5	0.588663	0.166667
C	C	0.5	0.618217	0.333333
C	C	0.5	0.677326	0.666667
C	C	0.5	0.70688	0.833333
C	C	0.5	0.647772	0.166667
C	C	0.5	0.677326	0.333333
C	C	0.5	0.736435	0.666667
C	C	0.5	0.765989	0.833333
C	C	0.5	0.70688	0.166667
C	C	0.5	0.736435	0.333333
C	C	0.5	0.795543	0.666667
C	C	0.5	0.825098	0.833333
C	C	0.5	0.765989	0.166667
C	C	0.5	0.795543	0.333333
C	C	0.5	0.854652	0.666667
C	C	0.5	0.825098	0.166667
C	C	0.5	0.854652	0.333333
O	O	0.44	0.114106	0.751174
O	O	0.55	0.114106	0.237089
O	O	0.55	0.885894	0.751174
O	O	0.44	0.885894	0.237089
H	H	0.527	0.0996859	0.41784
H	H	0.4793	0.109299	0.962441
H	H	0.4793	0.890701	0.0375587
H	H	0.527	0.900314	0.581455
