data_global
_cell_length_a 10
_cell_length_b 44.07
_cell_length_c 4.26
_cell_angle_alpha 90
_cell_angle_beta 90
_cell_angle_gamma 90
_symmetry_space_group_name_H-M 'P -1'
loop_
_symmetry_equiv_pos_as_xyz
  'x,y,z'
loop_
_atom_site_label
_atom_site_fract_x
_atom_site_fract_y
_atom_site_fract_z
C 0.5 0.13724 0.666667
C 0.5 0.165145 0.833333
C 0.5 0.13724 0.333333
C 0.5 0.193049 0.666667
C 0.5 0.220954 0.833333
C 0.5 0.165145 0.166667
C 0.5 0.193049 0.333333
C 0.5 0.248859 0.666667
C 0.5 0.276763 0.833333
C 0.5 0.220954 0.166667
C 0.5 0.248859 0.333333
C 0.5 0.304668 0.666667
C 0.5 0.332572 0.833333
C 0.5 0.276763 0.166667
C 0.5 0.304668 0.333333
C 0.5 0.360477 0.666667
C 0.5 0.388382 0.833333
C 0.5 0.332572 0.166667
C 0.5 0.360477 0.333333
C 0.5 0.416286 0.666667
C 0.5 0.444191 0.833333
C 0.5 0.388382 0.166667
C 0.5 0.416286 0.333333
C 0.5 0.472095 0.666667
C 0.5 0.5 0.833333
C 0.5 0.444191 0.166667
C 0.5 0.472095 0.333333
C 0.5 0.527905 0.666667
C 0.5 0.555809 0.833333
C 0.5 0.5 0.166667
C 0.5 0.527905 0.333333
C 0.5 0.583714 0.666667
C 0.5 0.611618 0.833333
C 0.5 0.555809 0.166667
C 0.5 0.583714 0.333333
C 0.5 0.639523 0.666667
C 0.5 0.667428 0.833333
C 0.5 0.611618 0.166667
C 0.5 0.639523 0.333333
C 0.5 0.695332 0.666667
C 0.5 0.723237 0.833333
C 0.5 0.667428 0.166667
C 0.5 0.695332 0.333333
C 0.5 0.751141 0.666667
C 0.5 0.779046 0.833333
C 0.5 0.723237 0.166667
C 0.5 0.751141 0.333333
C 0.5 0.806951 0.666667
C 0.5 0.834855 0.833333
C 0.5 0.779046 0.166667
C 0.5 0.806951 0.333333
C 0.5 0.86276 0.666667
C 0.5 0.834855 0.166667
C 0.5 0.86276 0.333333
H 0.5 0.11582 0.794601
H 0.5 0.11582 0.205399
H 0.5 0.88418 0.794601
H 0.5 0.88418 0.205399
