data_global
_cell_length_a 10
_cell_length_b 39.15
_cell_length_c 4.26
_cell_angle_alpha 90
_cell_angle_beta 90
_cell_angle_gamma 90
_symmetry_space_group_name_H-M 'P -1'
loop_
_symmetry_equiv_pos_as_xyz
  'x,y,z'
loop_
_atom_site_label
_atom_site_fract_x
_atom_site_fract_y
_atom_site_fract_z
C 0.5 0.154778 0.660293
C 0.5 0.185604 0.832146
C 0.5 0.154778 0.339706
C 0.5 0.216999 0.666921
C 0.5 0.24857 0.833964
C 0.5 0.185604 0.167854
C 0.5 0.216999 0.333079
C 0.5 0.279985 0.666948
C 0.5 0.311375 0.83319
C 0.5 0.24857 0.166036
C 0.5 0.279985 0.333052
C 0.5 0.342855 0.666444
C 0.5 0.374313 0.833279
C 0.5 0.311375 0.16681
C 0.5 0.342855 0.333556
C 0.5 0.405728 0.666742
C 0.5 0.437161 0.833495
C 0.5 0.374313 0.166721
C 0.5 0.405728 0.333258
C 0.5 0.468594 0.666577
C 0.5 0.5 0.833288
C 0.5 0.437161 0.166505
C 0.5 0.468594 0.333423
C 0.5 0.531405 0.666577
C 0.5 0.562838 0.833495
C 0.5 0.5 0.166712
C 0.5 0.531405 0.333423
C 0.5 0.594272 0.666742
C 0.5 0.625687 0.83328
C 0.5 0.562839 0.166505
C 0.5 0.594272 0.333258
C 0.5 0.657145 0.666444
C 0.5 0.688625 0.833191
C 0.5 0.625687 0.16672
C 0.5 0.657145 0.333556
C 0.5 0.720015 0.666948
C 0.5 0.751431 0.833965
C 0.5 0.688625 0.166809
C 0.5 0.720015 0.333052
C 0.5 0.783001 0.66692
C 0.5 0.814397 0.832146
C 0.5 0.751431 0.166036
C 0.5 0.783001 0.33308
C 0.5 0.845222 0.660291
C 0.5 0.814397 0.167854
C 0.5 0.845222 0.339709
H 0.5 0.13037 0.781674
H 0.5 0.13037 0.218325
H 0.5 0.86963 0.781675
H 0.5 0.86963 0.218325
