data_global
_cell_length_a 10
_cell_length_b 29.31
_cell_length_c 16.188
_cell_angle_alpha 90
_cell_angle_beta 90
_cell_angle_gamma 90
_symmetry_space_group_name_H-M 'P -1'
loop_
_symmetry_equiv_pos_as_xyz
  'x,y,z'
loop_
_atom_site_label
_atom_site_fract_x
_atom_site_fract_y
_atom_site_fract_z
C 0.5 0.202067 0.177133
C 0.5 0.201272 0.908774
C 0.5 0.243167 0.219727
C 0.5 0.241804 0.954747
C 0.5 0.201272 0.0912262
C 0.5 0.202067 0.822867
C 0.5 0.284907 0.177266
C 0.5 0.284097 0.911066
C 0.5 0.328493 0.220502
C 0.5 0.332134 0.692615
C 0.5 0.326088 0.956214
C 0.5 0.241804 0.0452531
C 0.5 0.243167 0.780273
C 0.5 0.284097 0.0889344
C 0.5 0.284907 0.822734
C 0.5 0.36948 0.174419
C 0.5 0.37395 0.653688
C 0.5 0.368181 0.913347
C 0.5 0.412637 0.214965
C 0.5 0.414982 0.699318
C 0.5 0.409847 0.956865
C 0.5 0.326087 0.0437861
C 0.5 0.332134 0.307385
C 0.5 0.328493 0.779498
C 0.5 0.368181 0.0866526
C 0.5 0.37395 0.346311
C 0.5 0.36948 0.825582
C 0.5 0.454657 0.170288
C 0.499999 0.463925 0.419353
C 0.5 0.459951 0.663428
C 0.5 0.452496 0.914896
C 0.5 0.498503 0.207601
C 0.499999 0.505903 0.457026
C 0.5 0.501497 0.707601
C 0.5 0.494097 0.957025
C 0.5 0.409847 0.0431355
C 0.5 0.414982 0.300683
C 0.5 0.412637 0.785035
C 0.5 0.452495 0.0851048
C 0.499999 0.459952 0.336571
C 0.5 0.463925 0.580648
C 0.5 0.454657 0.829712
C 0.5 0.540049 0.163427
C 0.5 0.547504 0.414896
C 0.5 0.545343 0.670288
C 0.500001 0.536075 0.919352
C 0.5 0.585018 0.199318
C 0.5 0.590153 0.456865
C 0.5 0.587362 0.714965
C 0.5 0.494098 0.0429746
C 0.5 0.501497 0.2924
C 0.5 0.505903 0.542974
C 0.5 0.498503 0.792399
C 0.499999 0.536074 0.080649
C 0.499999 0.545343 0.329712
C 0.5 0.547504 0.585105
C 0.5 0.540048 0.836571
C 0.5 0.62605 0.153688
C 0.5 0.631819 0.413347
C 0.5 0.63052 0.674418
C 0.5 0.667867 0.192616
C 0.5 0.673912 0.456214
C 0.5 0.671507 0.720502
C 0.5 0.587362 0.285035
C 0.5 0.590153 0.543135
C 0.5 0.585018 0.800682
C 0.5 0.63052 0.325582
C 0.5 0.631819 0.586653
C 0.5 0.62605 0.846312
C 0.5 0.715903 0.411066
C 0.5 0.715093 0.677266
C 0.5 0.758197 0.454747
C 0.5 0.756833 0.719727
C 0.5 0.671507 0.279498
C 0.5 0.673912 0.543786
C 0.5 0.667866 0.807385
C 0.5 0.715093 0.322735
C 0.5 0.715903 0.588934
C 0.5 0.798728 0.408774
C 0.5 0.797933 0.677133
C 0.5 0.756833 0.280273
C 0.5 0.758197 0.545253
C 0.5 0.797933 0.322867
C 0.5 0.798728 0.591226
H 0.5 0.170045 0.21141
H 0.5 0.168345 0.939822
H 0.5 0.242558 0.286948
H 0.5 0.168345 0.0601778
H 0.5 0.170045 0.78859
H 0.5 0.301553 0.654457
H 0.5 0.242558 0.713052
H 0.5 0.374261 0.586495
H 0.500001 0.301553 0.345543
H 0.5 0.374261 0.413505
H 0.499998 0.432761 0.453903
H 0.5 0.432761 0.546097
H 0.500001 0.567238 0.953904
H 0.499999 0.567239 0.0460959
H 0.5 0.625739 0.0864949
H 0.5 0.698448 0.154458
H 0.5 0.625739 0.913505
H 0.5 0.757442 0.786949
H 0.5 0.698448 0.845543
H 0.5 0.831655 0.439822
H 0.5 0.829955 0.71141
H 0.5 0.757442 0.213052
H 0.5 0.829955 0.28859
H 0.5 0.831655 0.560178
