data_cove-cape-zigzag
_audit_creation_method                 'DeviceStudio'
_symmetry_space_group_name_H-M         'PMMA'
_symmetry_Int_Tables_number            51
_symmetry_cell_setting                 Orthorhombic
loop_
_symmetry_equiv_pos_as_xyz
x,y,z
-x,-y,-z+7/12
-x,y,-z+1/12
x,-y,z+1/2
-x,-y,z+1/2
x,y,-z+1/12
x,-y,-z+7/12
-x,y,z
_cell_length_a                         10
_cell_length_b                         30
_cell_length_c                         14.7571
_cell_angle_alpha                      90
_cell_angle_beta                       90
_cell_angle_gamma                      90
loop_
_atom_site_label
_atom_site_type_symbol
_atom_site_fract_x
_atom_site_fract_y
_atom_site_fract_z
C	C	0.5	0.689333	0.0416677
C	C	0.5	0.689333	0.375
C	C	0.5	0.689333	0.541667
C	C	0.5	0.334333	0.125001
C	C	0.5	0.334333	0.291667
C	C	0.5	0.334333	0.458333
C	C	0.5	0.381667	0.125001
C	C	0.5	0.381667	0.291667
C	C	0.5	0.381667	0.458333
C	C	0.5	0.405333	0.0416677
C	C	0.5	0.405333	0.208334
C	C	0.5	0.405333	0.375
C	C	0.5	0.405333	0.541667
C	C	0.5	0.452667	0.0416677
C	C	0.5	0.452667	0.208334
C	C	0.5	0.452667	0.375
C	C	0.5	0.452667	0.541667
C	C	0.5	0.476333	0.125001
C	C	0.5	0.476333	0.291667
C	C	0.5	0.476333	0.458333
H	H	0.5	0.725667	0.0416677
H	H	0.5	0.725667	0.375
H	H	0.5	0.725667	0.541667
H	H	0.5	0.316167	0.355634
H	H	0.5	0.316167	0.394366
