data_global
_cell_length_a 10
_cell_length_b 40.38
_cell_length_c 4.26
_cell_angle_alpha 90
_cell_angle_beta 90
_cell_angle_gamma 90
_symmetry_space_group_name_H-M 'P -1'
loop_
_symmetry_equiv_pos_as_xyz
  'x,y,z'
loop_
_atom_site_label
_atom_site_fract_x
_atom_site_fract_y
_atom_site_fract_z
C 0.480693 0.150072 0.657701
C 0.494387 0.179309 0.833297
C 0.514973 0.150517 0.344653
C 0.500924 0.209859 0.666021
C 0.501552 0.240472 0.833518
C 0.504987 0.179417 0.166304
C 0.499881 0.209937 0.333855
C 0.50064 0.270943 0.667105
C 0.500006 0.301456 0.833432
C 0.499209 0.240506 0.16635
C 0.499688 0.270958 0.332894
C 0.499889 0.332037 0.666636
C 0.49996 0.362553 0.833016
C 0.49998 0.301457 0.166582
C 0.500022 0.332036 0.333386
C 0.500002 0.393076 0.666632
C 0.500006 0.423645 0.83334
C 0.500009 0.362548 0.166993
C 0.50001 0.393071 0.333337
C 0.500006 0.454161 0.666892
C 0.500005 0.484684 0.833326
C 0.500011 0.423646 0.166611
C 0.500006 0.454166 0.33305
C 0.500003 0.51525 0.666625
C 0.500006 0.545773 0.832985
C 0.500004 0.484681 0.166631
C 0.500006 0.515252 0.33331
C 0.50001 0.576298 0.666445
C 0.500006 0.606888 0.832848
C 0.500005 0.545777 0.166853
C 0.500002 0.576304 0.333141
C 0.500009 0.637411 0.666028
C 0.500062 0.667949 0.831901
C 0.499996 0.606876 0.166164
C 0.499972 0.63742 0.332045
C 0.50004 0.698536 0.664706
C 0.499588 0.729066 0.830843
C 0.499944 0.667929 0.165119
C 0.500051 0.698525 0.331607
C 0.49881 0.759542 0.664285
C 0.499452 0.79018 0.831439
C 0.500489 0.729037 0.165083
C 0.501119 0.759507 0.331368
C 0.505761 0.820738 0.664068
C 0.518777 0.850024 0.839475
C 0.500542 0.790086 0.163715
C 0.495301 0.820624 0.330986
C 0.484707 0.849514 0.152504
O 0.440901 0.119121 0.747444
O 0.552953 0.119404 0.237994
O 0.445236 0.880548 0.258679
O 0.556817 0.881085 0.749076
H 0.479603 0.113788 0.96225
H 0.525664 0.105224 0.419326
H 0.472923 0.894844 0.0784446
H 0.516993 0.886266 0.534737
