data_global
_cell_length_a 10
_cell_length_b 46.53
_cell_length_c 4.26
_cell_angle_alpha 90
_cell_angle_beta 90
_cell_angle_gamma 90
_symmetry_space_group_name_H-M 'P -1'
loop_
_symmetry_equiv_pos_as_xyz
  'x,y,z'
loop_
_atom_site_label
_atom_site_fract_x
_atom_site_fract_y
_atom_site_fract_z
C 0.5 0.12999 0.666667
C 0.5 0.156419 0.833333
C 0.5 0.12999 0.333333
C 0.5 0.182848 0.666667
C 0.5 0.209278 0.833333
C 0.5 0.156419 0.166667
C 0.5 0.182848 0.333333
C 0.5 0.235707 0.666667
C 0.5 0.262136 0.833333
C 0.5 0.209278 0.166667
C 0.5 0.235707 0.333333
C 0.5 0.288565 0.666667
C 0.5 0.314995 0.833333
C 0.5 0.262136 0.166667
C 0.5 0.288565 0.333333
C 0.5 0.341424 0.666667
C 0.5 0.367853 0.833333
C 0.5 0.314995 0.166667
C 0.5 0.341424 0.333333
C 0.5 0.394283 0.666667
C 0.5 0.420712 0.833333
C 0.5 0.367853 0.166667
C 0.5 0.394283 0.333333
C 0.5 0.447141 0.666667
C 0.5 0.473571 0.833333
C 0.5 0.420712 0.166667
C 0.5 0.447141 0.333333
C 0.5 0.5 0.666667
C 0.5 0.526429 0.833333
C 0.5 0.473571 0.166667
C 0.5 0.5 0.333333
C 0.5 0.552859 0.666667
C 0.5 0.579288 0.833333
C 0.5 0.526429 0.166667
C 0.5 0.552859 0.333333
C 0.5 0.605717 0.666667
C 0.5 0.632147 0.833333
C 0.5 0.579288 0.166667
C 0.5 0.605717 0.333333
C 0.5 0.658576 0.666667
C 0.5 0.685005 0.833333
C 0.5 0.632147 0.166667
C 0.5 0.658576 0.333333
C 0.5 0.711435 0.666667
C 0.5 0.737864 0.833333
C 0.5 0.685005 0.166667
C 0.5 0.711435 0.333333
C 0.5 0.764293 0.666667
C 0.5 0.790722 0.833333
C 0.5 0.737864 0.166667
C 0.5 0.764293 0.333333
C 0.5 0.817152 0.666667
C 0.5 0.843581 0.833333
C 0.5 0.790722 0.166667
C 0.5 0.817152 0.333333
C 0.5 0.87001 0.666667
C 0.5 0.843581 0.166667
C 0.5 0.87001 0.333333
H 0.5 0.109702 0.794601
H 0.5 0.109702 0.205399
H 0.5 0.890298 0.794601
H 0.5 0.890298 0.205399
