data_global
_cell_length_a 10
_cell_length_b 28.08
_cell_length_c 4.26
_cell_angle_alpha 90
_cell_angle_beta 90
_cell_angle_gamma 90
_symmetry_space_group_name_H-M 'P -1'
loop_
_symmetry_equiv_pos_as_xyz
  'x,y,z'
loop_
_atom_site_label
_atom_site_fract_x
_atom_site_fract_y
_atom_site_fract_z
C 0.5 0.215334 0.666667
C 0.5 0.259129 0.833333
C 0.5 0.215334 0.333333
C 0.5 0.302924 0.666667
C 0.5 0.346718 0.833333
C 0.5 0.259129 0.166667
C 0.5 0.302924 0.333333
C 0.5 0.390513 0.666667
C 0.5 0.434308 0.833333
C 0.5 0.346718 0.166667
C 0.5 0.390513 0.333333
C 0.5 0.478103 0.666667
C 0.5 0.521897 0.833333
C 0.5 0.434308 0.166667
C 0.5 0.478103 0.333333
C 0.5 0.565692 0.666667
C 0.5 0.609487 0.833333
C 0.5 0.521897 0.166667
C 0.5 0.565692 0.333333
C 0.5 0.653282 0.666667
C 0.5 0.697076 0.833333
C 0.5 0.609487 0.166667
C 0.5 0.653282 0.333333
C 0.5 0.740871 0.666667
C 0.5 0.784666 0.833333
C 0.5 0.697076 0.166667
C 0.5 0.740871 0.333333
C 0.5 0.784666 0.166667
H 0.5 0.181717 0.794601
H 0.5 0.181717 0.205399
H 0.5 0.818283 0.705399
H 0.5 0.818283 0.294601
