data_global
_cell_length_a 10
_cell_length_b 45.3
_cell_length_c 4.26
_cell_angle_alpha 90
_cell_angle_beta 90
_cell_angle_gamma 90
_symmetry_space_group_name_H-M 'P -1'
loop_
_symmetry_equiv_pos_as_xyz
  'x,y,z'
loop_
_atom_site_label
_atom_site_fract_x
_atom_site_fract_y
_atom_site_fract_z
C 0.5 0.133516 0.666667
C 0.5 0.160663 0.833333
C 0.5 0.133516 0.333333
C 0.5 0.18781 0.666667
C 0.5 0.214957 0.833333
C 0.5 0.160663 0.166667
C 0.5 0.18781 0.333333
C 0.5 0.242104 0.666667
C 0.5 0.269251 0.833333
C 0.5 0.214957 0.166667
C 0.5 0.242104 0.333333
C 0.5 0.296398 0.666667
C 0.5 0.323545 0.833333
C 0.5 0.269251 0.166667
C 0.5 0.296398 0.333333
C 0.5 0.350692 0.666667
C 0.5 0.377839 0.833333
C 0.5 0.323545 0.166667
C 0.5 0.350692 0.333333
C 0.5 0.404986 0.666667
C 0.5 0.432133 0.833333
C 0.5 0.377839 0.166667
C 0.5 0.404986 0.333333
C 0.5 0.45928 0.666667
C 0.5 0.486427 0.833333
C 0.5 0.432133 0.166667
C 0.5 0.45928 0.333333
C 0.5 0.513573 0.666667
C 0.5 0.54072 0.833333
C 0.5 0.486427 0.166667
C 0.5 0.513573 0.333333
C 0.5 0.567867 0.666667
C 0.5 0.595014 0.833333
C 0.5 0.54072 0.166667
C 0.5 0.567867 0.333333
C 0.5 0.622161 0.666667
C 0.5 0.649308 0.833333
C 0.5 0.595014 0.166667
C 0.5 0.622161 0.333333
C 0.5 0.676455 0.666667
C 0.5 0.703602 0.833333
C 0.5 0.649308 0.166667
C 0.5 0.676455 0.333333
C 0.5 0.730749 0.666667
C 0.5 0.757896 0.833333
C 0.5 0.703602 0.166667
C 0.5 0.730749 0.333333
C 0.5 0.785043 0.666667
C 0.5 0.81219 0.833333
C 0.5 0.757896 0.166667
C 0.5 0.785043 0.333333
C 0.5 0.839337 0.666667
C 0.5 0.866484 0.833333
C 0.5 0.81219 0.166667
C 0.5 0.839337 0.333333
C 0.5 0.866484 0.166667
H 0.5 0.112678 0.794601
H 0.5 0.112678 0.205399
H 0.5 0.887322 0.705399
H 0.5 0.887322 0.294601
