data_global
_cell_length_a 10
_cell_length_b 23.16
_cell_length_c 4.26
_cell_angle_alpha 90
_cell_angle_beta 90
_cell_angle_gamma 90
_symmetry_space_group_name_H-M 'P -1'
loop_
_symmetry_equiv_pos_as_xyz
  'x,y,z'
loop_
_atom_site_label
_atom_site_fract_x
_atom_site_fract_y
_atom_site_fract_z
C 0.5 0.261058 0.666667
C 0.5 0.314156 0.833333
C 0.5 0.261058 0.333333
C 0.5 0.367254 0.666667
C 0.5 0.420353 0.833333
C 0.5 0.314156 0.166667
C 0.5 0.367254 0.333333
C 0.5 0.473451 0.666667
C 0.5 0.526549 0.833333
C 0.5 0.420353 0.166667
C 0.5 0.473451 0.333333
C 0.5 0.579647 0.666667
C 0.5 0.632746 0.833333
C 0.5 0.526549 0.166667
C 0.5 0.579647 0.333333
C 0.5 0.685844 0.666667
C 0.5 0.738942 0.833333
C 0.5 0.632746 0.166667
C 0.5 0.685844 0.333333
C 0.5 0.738942 0.166667
H 0.5 0.220299 0.794601
H 0.5 0.220299 0.205399
H 0.5 0.779701 0.705399
H 0.5 0.779701 0.294601
