data_global
_cell_length_a 10
_cell_length_b 25.62
_cell_length_c 4.26
_cell_angle_alpha 90
_cell_angle_beta 90
_cell_angle_gamma 90
_symmetry_space_group_name_H-M 'P -1'
loop_
_symmetry_equiv_pos_as_xyz
  'x,y,z'
loop_
_atom_site_label
_atom_site_fract_x
_atom_site_fract_y
_atom_site_fract_z
C 0.5 0.236001 0.666667
C 0.5 0.284001 0.833333
C 0.5 0.236001 0.333333
C 0.5 0.332001 0.666667
C 0.5 0.38 0.833333
C 0.5 0.284001 0.166667
C 0.5 0.332001 0.333333
C 0.5 0.428 0.666667
C 0.5 0.476 0.833333
C 0.5 0.38 0.166667
C 0.5 0.428 0.333333
C 0.5 0.524 0.666667
C 0.5 0.572 0.833333
C 0.5 0.476 0.166667
C 0.5 0.524 0.333333
C 0.5 0.62 0.666667
C 0.5 0.667999 0.833333
C 0.5 0.572 0.166667
C 0.5 0.62 0.333333
C 0.5 0.715999 0.666667
C 0.5 0.763999 0.833333
C 0.5 0.667999 0.166667
C 0.5 0.715999 0.333333
C 0.5 0.763999 0.166667
H 0.5 0.199156 0.794601
H 0.5 0.199156 0.205399
H 0.5 0.800844 0.705399
H 0.5 0.800844 0.294601
