data_global
_cell_length_a 10
_cell_length_b 36.69
_cell_length_c 4.26
_cell_angle_alpha 90
_cell_angle_beta 90
_cell_angle_gamma 90
_symmetry_space_group_name_H-M 'P -1'
loop_
_symmetry_equiv_pos_as_xyz
  'x,y,z'
loop_
_atom_site_label
_atom_site_fract_x
_atom_site_fract_y
_atom_site_fract_z
C 0.5 0.164825 0.666667
C 0.5 0.198343 0.833333
C 0.5 0.164825 0.333333
C 0.5 0.23186 0.666667
C 0.5 0.265378 0.833333
C 0.5 0.198343 0.166667
C 0.5 0.23186 0.333333
C 0.5 0.298895 0.666667
C 0.5 0.332413 0.833333
C 0.5 0.265378 0.166667
C 0.5 0.298895 0.333333
C 0.5 0.36593 0.666667
C 0.5 0.399448 0.833333
C 0.5 0.332413 0.166667
C 0.5 0.36593 0.333333
C 0.5 0.432965 0.666667
C 0.5 0.466483 0.833333
C 0.5 0.399448 0.166667
C 0.5 0.432965 0.333333
C 0.5 0.5 0.666667
C 0.5 0.533517 0.833333
C 0.5 0.466483 0.166667
C 0.5 0.5 0.333333
C 0.5 0.567035 0.666667
C 0.5 0.600552 0.833333
C 0.5 0.533517 0.166667
C 0.5 0.567035 0.333333
C 0.5 0.63407 0.666667
C 0.5 0.667587 0.833333
C 0.5 0.600552 0.166667
C 0.5 0.63407 0.333333
C 0.5 0.701105 0.666667
C 0.5 0.734622 0.833333
C 0.5 0.667587 0.166667
C 0.5 0.701105 0.333333
C 0.5 0.76814 0.666667
C 0.5 0.801657 0.833333
C 0.5 0.734622 0.166667
C 0.5 0.76814 0.333333
C 0.5 0.835175 0.666667
C 0.5 0.801657 0.166667
C 0.5 0.835175 0.333333
H 0.5 0.139097 0.794601
H 0.5 0.139097 0.205399
H 0.5 0.860903 0.794601
H 0.5 0.860903 0.205399
