data_global
_cell_length_a 10
_cell_length_b 37.92
_cell_length_c 4.26
_cell_angle_alpha 90
_cell_angle_beta 90
_cell_angle_gamma 90
_symmetry_space_group_name_H-M 'P -1'
loop_
_symmetry_equiv_pos_as_xyz
  'x,y,z'
loop_
_atom_site_label
_atom_site_fract_x
_atom_site_fract_y
_atom_site_fract_z
C 0.5 0.159482 0.666667
C 0.5 0.191912 0.833333
C 0.5 0.159482 0.333333
C 0.5 0.224343 0.666667
C 0.5 0.256773 0.833333
C 0.5 0.191912 0.166667
C 0.5 0.224343 0.333333
C 0.5 0.289203 0.666667
C 0.5 0.321633 0.833333
C 0.5 0.256773 0.166667
C 0.5 0.289203 0.333333
C 0.5 0.354064 0.666667
C 0.5 0.386494 0.833333
C 0.5 0.321633 0.166667
C 0.5 0.354064 0.333333
C 0.5 0.418924 0.666667
C 0.5 0.451355 0.833333
C 0.5 0.386494 0.166667
C 0.5 0.418924 0.333333
C 0.5 0.483785 0.666667
C 0.5 0.516215 0.833333
C 0.5 0.451355 0.166667
C 0.5 0.483785 0.333333
C 0.5 0.548645 0.666667
C 0.5 0.581076 0.833333
C 0.5 0.516215 0.166667
C 0.5 0.548645 0.333333
C 0.5 0.613506 0.666667
C 0.5 0.645936 0.833333
C 0.5 0.581076 0.166667
C 0.5 0.613506 0.333333
C 0.5 0.678367 0.666667
C 0.5 0.710797 0.833333
C 0.5 0.645936 0.166667
C 0.5 0.678367 0.333333
C 0.5 0.743227 0.666667
C 0.5 0.775657 0.833333
C 0.5 0.710797 0.166667
C 0.5 0.743227 0.333333
C 0.5 0.808088 0.666667
C 0.5 0.840518 0.833333
C 0.5 0.775657 0.166667
C 0.5 0.808088 0.333333
C 0.5 0.840518 0.166667
H 0.5 0.134588 0.794601
H 0.5 0.134588 0.205399
H 0.5 0.865412 0.705399
H 0.5 0.865412 0.294601
