data_global
_cell_length_a 10
_cell_length_b 33
_cell_length_c 4.26
_cell_angle_alpha 90
_cell_angle_beta 90
_cell_angle_gamma 90
_symmetry_space_group_name_H-M 'P -1'
loop_
_symmetry_equiv_pos_as_xyz
  'x,y,z'
loop_
_atom_site_label
_atom_site_fract_x
_atom_site_fract_y
_atom_site_fract_z
C 0.5 0.183245 0.666667
C 0.5 0.22051 0.833333
C 0.5 0.183245 0.333333
C 0.5 0.257775 0.666667
C 0.5 0.295041 0.833333
C 0.5 0.22051 0.166667
C 0.5 0.257775 0.333333
C 0.5 0.332306 0.666667
C 0.5 0.369571 0.833333
C 0.5 0.295041 0.166667
C 0.5 0.332306 0.333333
C 0.5 0.406837 0.666667
C 0.5 0.444102 0.833333
C 0.5 0.369571 0.166667
C 0.5 0.406837 0.333333
C 0.5 0.481367 0.666667
C 0.5 0.518633 0.833333
C 0.5 0.444102 0.166667
C 0.5 0.481367 0.333333
C 0.5 0.555898 0.666667
C 0.5 0.593163 0.833333
C 0.5 0.518633 0.166667
C 0.5 0.555898 0.333333
C 0.5 0.630429 0.666667
C 0.5 0.667694 0.833333
C 0.5 0.593163 0.166667
C 0.5 0.630429 0.333333
C 0.5 0.704959 0.666667
C 0.5 0.742225 0.833333
C 0.5 0.667694 0.166667
C 0.5 0.704959 0.333333
C 0.5 0.77949 0.666667
C 0.5 0.816755 0.833333
C 0.5 0.742225 0.166667
C 0.5 0.77949 0.333333
C 0.5 0.816755 0.166667
H 0.5 0.15464 0.794601
H 0.5 0.15464 0.205399
H 0.5 0.84536 0.705399
H 0.5 0.84536 0.294601
