data_global
_cell_length_a 10
_cell_length_b 52.68
_cell_length_c 4.26
_cell_angle_alpha 90
_cell_angle_beta 90
_cell_angle_gamma 90
_symmetry_space_group_name_H-M 'P -1'
loop_
_symmetry_equiv_pos_as_xyz
  'x,y,z'
loop_
_atom_site_label
_atom_site_fract_x
_atom_site_fract_y
_atom_site_fract_z
C 0.5 0.115064 0.660359
C 0.5 0.137963 0.832034
C 0.5 0.115064 0.339641
C 0.500001 0.161292 0.666902
C 0.5 0.184763 0.83393
C 0.5 0.137963 0.167966
C 0.500001 0.161292 0.333098
C 0.5 0.2081 0.667079
C 0.5 0.231424 0.833198
C 0.5 0.184763 0.16607
C 0.5 0.2081 0.332921
C 0.5 0.254832 0.666477
C 0.5 0.278203 0.833102
C 0.5 0.231424 0.166802
C 0.5 0.254832 0.333523
C 0.5 0.301541 0.666756
C 0.5 0.324917 0.833484
C 0.5 0.278203 0.166898
C 0.5 0.301541 0.333245
C 0.5 0.348271 0.666789
C 0.5 0.371596 0.833269
C 0.5 0.324917 0.166516
C 0.5 0.348271 0.333211
C 0.5 0.394954 0.666543
C 0.5 0.418305 0.833241
C 0.5 0.371596 0.166732
C 0.5 0.394954 0.333458
C 0.5 0.441631 0.666736
C 0.5 0.464985 0.833446
C 0.5 0.418305 0.166759
C 0.5 0.441631 0.333264
C 0.5 0.488337 0.666744
C 0.5 0.511663 0.833256
C 0.5 0.464985 0.166555
C 0.5 0.488337 0.333256
C 0.5 0.535016 0.666555
C 0.5 0.55837 0.833264
C 0.5 0.511663 0.166744
C 0.5 0.535016 0.333445
C 0.5 0.581696 0.666759
C 0.5 0.605046 0.833458
C 0.5 0.55837 0.166736
C 0.5 0.581696 0.333241
C 0.5 0.628404 0.666731
C 0.5 0.651729 0.833212
C 0.5 0.605046 0.166542
C 0.5 0.628404 0.333269
C 0.5 0.675083 0.666516
C 0.5 0.698458 0.833245
C 0.5 0.651729 0.166788
C 0.5 0.675083 0.333484
C 0.5 0.721797 0.666898
C 0.5 0.745168 0.833523
C 0.5 0.698458 0.166755
C 0.5 0.721797 0.333103
C 0.5 0.768575 0.666802
C 0.5 0.791899 0.832921
C 0.5 0.745168 0.166477
C 0.5 0.768575 0.333198
C 0.5 0.815237 0.666071
C 0.5 0.838707 0.833096
C 0.5 0.791899 0.167079
C 0.5 0.815237 0.333929
C 0.5 0.862037 0.667966
C 0.5 0.884936 0.839636
C 0.5 0.838707 0.166904
C 0.5 0.862037 0.332034
C 0.5 0.884936 0.160363
H 0.5 0.0969247 0.781747
H 0.5 0.0969247 0.218254
H 0.5 0.903076 0.718255
H 0.5 0.903076 0.281744
