data_global
_cell_length_a 10
_cell_length_b 29.31
_cell_length_c 17.2104
_cell_angle_alpha 90
_cell_angle_beta 90
_cell_angle_gamma 90
_symmetry_space_group_name_H-M 'P -1'
loop_
_symmetry_equiv_pos_as_xyz
  'x,y,z'
loop_
_atom_site_label
_atom_site_fract_x
_atom_site_fract_y
_atom_site_fract_z
C 0.5 0.205558 0.165371
C 0.5 0.205427 0.915272
C 0.5 0.246588 0.205368
C 0.5 0.246259 0.9577
C 0.5 0.205427 0.0847284
C 0.5 0.205558 0.834628
C 0.5 0.28847 0.165803
C 0.5 0.2886 0.916974
C 0.5 0.331487 0.207442
C 0.5 0.332838 0.710868
C 0.5 0.331145 0.958674
C 0.5 0.246259 0.0423003
C 0.5 0.246588 0.794632
C 0.5 0.288601 0.0830261
C 0.5 0.28847 0.834197
C 0.5 0.373327 0.166195
C 0.5 0.373365 0.670788
C 0.5 0.37326 0.917401
C 0.5 0.41549 0.208001
C 0.5 0.415629 0.709441
C 0.5 0.415261 0.958583
C 0.5 0.331145 0.0413256
C 0.5 0.332838 0.289132
C 0.5 0.331487 0.792558
C 0.5 0.37326 0.0825993
C 0.5 0.373365 0.329212
C 0.5 0.373327 0.833805
C 0.5 0.457841 0.16624
C 0.5 0.459764 0.414575
C 0.5 0.458418 0.666681
C 0.5 0.457615 0.916504
C 0.5 0.499763 0.20833
C 0.5 0.500178 0.457496
C 0.5 0.500237 0.70833
C 0.5 0.499822 0.957497
C 0.5 0.415261 0.0414175
C 0.5 0.415629 0.290559
C 0.5 0.41549 0.791999
C 0.5 0.457615 0.0834959
C 0.5 0.458418 0.333319
C 0.5 0.459764 0.585425
C 0.5 0.457841 0.83376
C 0.5 0.541582 0.16668
C 0.5 0.542385 0.416504
C 0.5 0.542159 0.66624
C 0.5 0.540236 0.914575
C 0.5 0.584372 0.209441
C 0.5 0.584739 0.458582
C 0.5 0.58451 0.708002
C 0.5 0.499822 0.0425035
C 0.5 0.500237 0.29167
C 0.5 0.500178 0.542504
C 0.5 0.499763 0.79167
C 0.5 0.540236 0.0854249
C 0.5 0.542159 0.33376
C 0.5 0.542385 0.583496
C 0.5 0.541582 0.83332
C 0.5 0.626635 0.170788
C 0.5 0.62674 0.417401
C 0.5 0.626673 0.666195
C 0.5 0.667163 0.210867
C 0.5 0.668854 0.458674
C 0.5 0.668513 0.707442
C 0.5 0.58451 0.291999
C 0.5 0.584739 0.541418
C 0.5 0.584372 0.790559
C 0.5 0.626673 0.333805
C 0.5 0.62674 0.5826
C 0.5 0.626635 0.829212
C 0.5 0.711399 0.416974
C 0.5 0.71153 0.665803
C 0.5 0.75374 0.4577
C 0.5 0.753412 0.705369
C 0.5 0.668513 0.292558
C 0.5 0.668854 0.541326
C 0.5 0.667163 0.789133
C 0.5 0.71153 0.334197
C 0.5 0.711399 0.583026
C 0.5 0.794573 0.415272
C 0.5 0.794441 0.665372
C 0.5 0.753412 0.294632
C 0.5 0.753741 0.5423
C 0.5 0.794441 0.334628
C 0.5 0.794573 0.584728
H 0.5 0.173382 0.197193
H 0.5 0.172781 0.945266
H 0.5 0.245813 0.268496
H 0.5 0.172781 0.0547335
H 0.5 0.173382 0.802807
H 0.5 0.301304 0.677645
H 0.5 0.245813 0.731504
H 0.5 0.37207 0.607645
H 0.5 0.301304 0.322355
H 0.5 0.37207 0.392355
H 0.5 0.427617 0.445839
H 0.5 0.427617 0.554161
H 0.5 0.572383 0.94584
H 0.5 0.572383 0.0541604
H 0.5 0.62793 0.107645
H 0.5 0.698696 0.177644
H 0.5 0.62793 0.892355
H 0.5 0.754187 0.768497
H 0.5 0.698696 0.822356
H 0.5 0.827218 0.445266
H 0.5 0.826618 0.697193
H 0.5 0.754187 0.231504
H 0.5 0.826618 0.302807
H 0.5 0.827218 0.554734
