data_global
_cell_length_a 10
_cell_length_b 29.31
_cell_length_c 16.5288
_cell_angle_alpha 90
_cell_angle_beta 90
_cell_angle_gamma 90
_symmetry_space_group_name_H-M 'P -1'
loop_
_symmetry_equiv_pos_as_xyz
  'x,y,z'
loop_
_atom_site_label
_atom_site_fract_x
_atom_site_fract_y
_atom_site_fract_z
C 0.5 0.20314 0.1731
C 0.5 0.202565 0.910963
C 0.5 0.244226 0.214815
C 0.5 0.243191 0.955759
C 0.5 0.202565 0.0890369
C 0.5 0.20314 0.826901
C 0.5 0.285987 0.1733
C 0.5 0.285491 0.913101
C 0.5 0.329409 0.215989
C 0.5 0.332297 0.698957
C 0.5 0.327675 0.957088
C 0.5 0.243191 0.0442407
C 0.5 0.244226 0.785185
C 0.5 0.285491 0.0868994
C 0.5 0.285987 0.8267
C 0.5 0.370705 0.171588
C 0.5 0.373725 0.659636
C 0.5 0.369785 0.914738
C 0.5 0.413546 0.212596
C 0.5 0.415172 0.702806
C 0.5 0.41154 0.957496
C 0.5 0.327675 0.0429118
C 0.5 0.332298 0.301044
C 0.5 0.329409 0.784011
C 0.5 0.369785 0.0852621
C 0.5 0.373725 0.340364
C 0.5 0.370705 0.828413
C 0.5 0.455656 0.168833
C 0.5 0.462578 0.417876
C 0.5 0.459457 0.664337
C 0.5 0.454101 0.915433
C 0.5 0.498918 0.207875
C 0.5 0.504134 0.457316
C 0.5 0.501082 0.707875
C 0.5 0.495866 0.957315
C 0.5 0.41154 0.0425044
C 0.5 0.415172 0.297194
C 0.5 0.413546 0.787403
C 0.5 0.454101 0.0845663
C 0.5 0.459457 0.335663
C 0.5 0.462578 0.582124
C 0.5 0.455656 0.831168
C 0.5 0.540543 0.16434
C 0.5 0.545899 0.415433
C 0.5 0.544344 0.668831
C 0.5 0.537423 0.917877
C 0.5 0.584828 0.202806
C 0.5 0.58846 0.457497
C 0.5 0.586453 0.712596
C 0.5 0.495866 0.0426853
C 0.5 0.501082 0.292125
C 0.5 0.504134 0.542684
C 0.5 0.498918 0.792124
C 0.5 0.537423 0.0821219
C 0.5 0.544344 0.331169
C 0.5 0.545899 0.584567
C 0.5 0.540543 0.835662
C 0.5 0.626274 0.159637
C 0.5 0.630215 0.414738
C 0.5 0.629295 0.671586
C 0.5 0.667702 0.198958
C 0.5 0.672326 0.457089
C 0.5 0.670591 0.715988
C 0.5 0.586453 0.287405
C 0.5 0.58846 0.542503
C 0.5 0.584828 0.797193
C 0.5 0.629295 0.328414
C 0.5 0.630215 0.585262
C 0.5 0.626274 0.840363
C 0.5 0.714509 0.413101
C 0.5 0.714013 0.6733
C 0.5 0.75681 0.455759
C 0.5 0.755774 0.714816
C 0.5 0.670591 0.284013
C 0.5 0.672326 0.542911
C 0.5 0.667702 0.801042
C 0.5 0.714013 0.3267
C 0.5 0.714509 0.586899
C 0.5 0.797435 0.410963
C 0.5 0.79686 0.6731
C 0.5 0.755774 0.285184
C 0.5 0.75681 0.544241
C 0.5 0.79686 0.3269
C 0.5 0.797435 0.589037
H 0.5 0.171065 0.206533
H 0.5 0.169736 0.941671
H 0.5 0.243538 0.280631
H 0.5 0.169736 0.0583296
H 0.5 0.171065 0.793467
H 0.5 0.301426 0.662408
H 0.5 0.243538 0.719369
H 0.5 0.373533 0.593829
H 0.5 0.301426 0.337592
H 0.5 0.373533 0.406171
H 0.5 0.431195 0.451732
H 0.5 0.431195 0.548268
H 0.5 0.568805 0.951732
H 0.5 0.568805 0.0482681
H 0.5 0.626467 0.0938301
H 0.5 0.698574 0.162409
H 0.5 0.626467 0.90617
H 0.5 0.756462 0.780632
H 0.5 0.698574 0.837591
H 0.5 0.830264 0.44167
H 0.5 0.828935 0.706534
H 0.5 0.756462 0.219368
H 0.5 0.828935 0.293466
H 0.5 0.830264 0.55833
