data_global
_cell_length_a 10
_cell_length_b 29.31
_cell_length_c 18.5736
_cell_angle_alpha 90
_cell_angle_beta 90
_cell_angle_gamma 90
_symmetry_space_group_name_H-M 'P -1'
loop_
_symmetry_equiv_pos_as_xyz
  'x,y,z'
loop_
_atom_site_label
_atom_site_fract_x
_atom_site_fract_y
_atom_site_fract_z
C 0.5 0.209642 0.15163
C 0.5 0.210403 0.922821
C 0.5 0.250435 0.189092
C 0.5 0.25163 0.961062
C 0.5 0.210404 0.0771822
C 0.5 0.209643 0.848366
C 0.5 0.29262 0.153174
C 0.5 0.293913 0.923369
C 0.5 0.334974 0.193185
C 0.5 0.333869 0.731224
C 0.5 0.337043 0.961438
C 0.5 0.251628 0.0389372
C 0.5 0.250434 0.810912
C 0.5 0.293914 0.0766328
C 0.5 0.29262 0.846824
C 0.5 0.377754 0.157152
C 0.5 0.372718 0.690066
C 0.5 0.379178 0.921814
C 0.5 0.41858 0.200271
C 0.5 0.416309 0.720792
C 0.5 0.42168 0.960271
C 0.5 0.337043 0.0385613
C 0.5 0.333871 0.268777
C 0.5 0.334975 0.806815
C 0.5 0.379178 0.0781862
C 0.5 0.372716 0.309932
C 0.5 0.377753 0.842848
C 0.5 0.461522 0.162709
C 0.5 0.454983 0.406763
C 0.5 0.456534 0.672359
C 0.5 0.463615 0.91783
C 0.5 0.501052 0.20914
C 0.5 0.492896 0.455713
C 0.5 0.498948 0.709139
C 0.5 0.507104 0.955712
C 0.5 0.42168 0.0397294
C 0.5 0.41631 0.279208
C 0.5 0.41858 0.799728
C 0.5 0.463615 0.0821701
C 0.5 0.456534 0.327641
C 0.5 0.454983 0.593237
C 0.5 0.461522 0.837291
C 0.5 0.543466 0.172361
C 0.5 0.536385 0.41783
C 0.5 0.538478 0.662708
C 0.5 0.545017 0.906762
C 0.5 0.583691 0.220793
C 0.5 0.57832 0.460271
C 0.5 0.581419 0.700271
C 0.5 0.507104 0.044288
C 0.5 0.498948 0.290861
C 0.5 0.492896 0.544287
C 0.5 0.501052 0.79086
C 0.5 0.545017 0.0932383
C 0.5 0.538478 0.337292
C 0.5 0.536385 0.58217
C 0.5 0.543466 0.827639
C 0.5 0.627281 0.190068
C 0.5 0.620822 0.421814
C 0.5 0.622249 0.657152
C 0.5 0.666132 0.231224
C 0.5 0.662958 0.461438
C 0.5 0.665023 0.693181
C 0.5 0.581419 0.29973
C 0.5 0.57832 0.539729
C 0.5 0.583692 0.779207
C 0.5 0.622247 0.342848
C 0.5 0.620822 0.578185
C 0.5 0.627278 0.809936
C 0.5 0.706086 0.42337
C 0.5 0.707382 0.653182
C 0.5 0.748373 0.461061
C 0.5 0.749565 0.689081
C 0.5 0.665025 0.306818
C 0.5 0.662957 0.538562
C 0.5 0.666136 0.768774
C 0.5 0.707382 0.346823
C 0.5 0.706087 0.576626
C 0.5 0.789595 0.422823
C 0.5 0.790357 0.651643
C 0.5 0.749563 0.310911
C 0.5 0.74837 0.538941
C 0.5 0.79036 0.348366
C 0.5 0.789597 0.577169
H 0.5 0.177206 0.180389
H 0.5 0.178091 0.951412
H 0.5 0.249059 0.247502
H 0.5 0.17809 0.0485877
H 0.5 0.177206 0.819611
H 0.500001 0.301378 0.703162
H 0.5 0.249059 0.752497
H 0.5 0.368966 0.631767
H 0.5 0.301377 0.296839
H 0.5 0.368966 0.368233
H 0.5 0.420992 0.430628
H 0.5 0.420992 0.569372
H 0.5 0.579008 0.930625
H 0.5 0.579008 0.0693751
H 0.5 0.631034 0.131769
H 0.5 0.698622 0.203164
H 0.5 0.631034 0.86823
H 0.5 0.750941 0.747505
H 0.5 0.698621 0.796836
H 0.5 0.82191 0.451412
H 0.5 0.822793 0.680387
H 0.5 0.750941 0.252497
H 0.5 0.822793 0.319613
H 0.5 0.821909 0.548589
