data_global
_cell_length_a 10
_cell_length_b 47.76
_cell_length_c 4.26
_cell_angle_alpha 90
_cell_angle_beta 90
_cell_angle_gamma 90
_symmetry_space_group_name_H-M 'P -1'
loop_
_symmetry_equiv_pos_as_xyz
  'x,y,z'
loop_
_atom_site_label
_atom_site_fract_x
_atom_site_fract_y
_atom_site_fract_z
C 0.5 0.126921 0.66042
C 0.5 0.152168 0.831955
C 0.5 0.126921 0.33958
C 0.5 0.177902 0.666874
C 0.5 0.203794 0.833869
C 0.5 0.152168 0.168045
C 0.5 0.177902 0.333126
C 0.5 0.229525 0.667157
C 0.5 0.255256 0.833228
C 0.5 0.203794 0.16613
C 0.5 0.229525 0.332843
C 0.5 0.281081 0.666549
C 0.5 0.306847 0.833016
C 0.5 0.255256 0.166772
C 0.5 0.281081 0.33345
C 0.5 0.332595 0.666716
C 0.5 0.358385 0.833403
C 0.5 0.306847 0.166983
C 0.5 0.332595 0.333284
C 0.5 0.38413 0.666881
C 0.5 0.409866 0.833321
C 0.5 0.358385 0.166597
C 0.5 0.38413 0.333119
C 0.5 0.435638 0.666635
C 0.5 0.461378 0.833139
C 0.5 0.409866 0.166679
C 0.5 0.435638 0.333365
C 0.5 0.487115 0.666661
C 0.5 0.512885 0.833339
C 0.5 0.461378 0.16686
C 0.5 0.487115 0.333339
C 0.5 0.538622 0.66686
C 0.5 0.564362 0.833365
C 0.5 0.512885 0.166661
C 0.5 0.538622 0.33314
C 0.5 0.590134 0.666679
C 0.5 0.615869 0.833119
C 0.5 0.564362 0.166635
C 0.5 0.590134 0.333321
C 0.5 0.641614 0.666597
C 0.5 0.667405 0.833284
C 0.5 0.615869 0.166881
C 0.5 0.641614 0.333403
C 0.5 0.693152 0.666983
C 0.5 0.718918 0.83345
C 0.5 0.667405 0.166716
C 0.5 0.693152 0.333017
C 0.5 0.744744 0.666772
C 0.5 0.770475 0.832843
C 0.5 0.718918 0.16655
C 0.5 0.744744 0.333228
C 0.5 0.796206 0.666131
C 0.5 0.822099 0.833125
C 0.5 0.770475 0.167158
C 0.5 0.796206 0.333869
C 0.5 0.847833 0.668045
C 0.5 0.87308 0.839579
C 0.5 0.822099 0.166875
C 0.5 0.847833 0.331956
C 0.5 0.87308 0.160422
H 0.5 0.106913 0.781808
H 0.5 0.106913 0.218192
H 0.5 0.893087 0.718193
H 0.5 0.893087 0.281808
