data_global
_cell_length_a 10
_cell_length_b 29.31
_cell_length_c 18.2328
_cell_angle_alpha 90
_cell_angle_beta 90
_cell_angle_gamma 90
_symmetry_space_group_name_H-M 'P -1'
loop_
_symmetry_equiv_pos_as_xyz
  'x,y,z'
loop_
_atom_site_label
_atom_site_fract_x
_atom_site_fract_y
_atom_site_fract_z
C 0.5 0.208623 0.154868
C 0.5 0.209154 0.921054
C 0.5 0.249464 0.19296
C 0.5 0.25028 0.960271
C 0.5 0.209157 0.0789519
C 0.5 0.208626 0.845125
C 0.5 0.291566 0.156165
C 0.5 0.292574 0.921857
C 0.5 0.334093 0.196556
C 0.5 0.333576 0.726398
C 0.5 0.335568 0.96078
C 0.5 0.250277 0.0397277
C 0.5 0.249461 0.807046
C 0.5 0.292576 0.0781467
C 0.5 0.291566 0.843831
C 0.5 0.376663 0.159309
C 0.5 0.372876 0.685499
C 0.5 0.377704 0.920754
C 0.5 0.417853 0.202119
C 0.5 0.416175 0.718077
C 0.5 0.420081 0.959895
C 0.5 0.335568 0.0392198
C 0.5 0.33358 0.273604
C 0.5 0.334094 0.803445
C 0.5 0.377703 0.0792465
C 0.5 0.372873 0.314498
C 0.5 0.376661 0.84069
C 0.5 0.460629 0.163407
C 0.5 0.45618 0.408854
C 0.5 0.457034 0.670799
C 0.5 0.462147 0.917611
C 0.5 0.50074 0.208962
C 0.5 0.494719 0.456595
C 0.5 0.499259 0.708958
C 0.5 0.505281 0.956593
C 0.5 0.420081 0.040105
C 0.5 0.416176 0.281923
C 0.5 0.417854 0.79788
C 0.5 0.462147 0.0823891
C 0.5 0.457034 0.329201
C 0.5 0.45618 0.591146
C 0.5 0.460629 0.836593
C 0.5 0.542965 0.170803
C 0.5 0.537853 0.417613
C 0.5 0.539371 0.663404
C 0.5 0.54382 0.90885
C 0.5 0.583824 0.21808
C 0.5 0.579919 0.459896
C 0.5 0.582147 0.702115
C 0.5 0.505281 0.0434066
C 0.5 0.499259 0.291043
C 0.5 0.494719 0.543405
C 0.5 0.50074 0.791038
C 0.5 0.54382 0.0911499
C 0.5 0.539371 0.336596
C 0.5 0.537853 0.582387
C 0.5 0.542965 0.829197
C 0.5 0.627128 0.185507
C 0.5 0.622297 0.420755
C 0.5 0.623337 0.659307
C 0.5 0.666418 0.226398
C 0.5 0.664432 0.460781
C 0.5 0.665907 0.696553
C 0.5 0.582147 0.297885
C 0.5 0.579919 0.540104
C 0.5 0.583824 0.78192
C 0.5 0.623337 0.340693
C 0.5 0.622297 0.579245
C 0.5 0.627128 0.814493
C 0.5 0.707426 0.421856
C 0.5 0.708434 0.656164
C 0.5 0.749722 0.460273
C 0.5 0.750537 0.692956
C 0.5 0.665907 0.303448
C 0.5 0.664432 0.539219
C 0.5 0.666418 0.773602
C 0.5 0.708434 0.343835
C 0.5 0.707425 0.578144
C 0.5 0.790845 0.421052
C 0.5 0.791376 0.654869
C 0.5 0.750538 0.307046
C 0.5 0.749722 0.539727
C 0.5 0.791375 0.34513
C 0.5 0.790845 0.578949
H 0.5 0.176268 0.18437
H 0.5 0.17675 0.949948
H 0.5 0.248211 0.252498
H 0.5 0.176749 0.0500507
H 0.5 0.176267 0.81563
H 0.5 0.301317 0.697087
H 0.5 0.248211 0.7475
H 0.5 0.36972 0.62604
H 0.5 0.301316 0.302914
H 0.5 0.36972 0.373961
H 0.5 0.42263 0.434622
H 0.5 0.42263 0.565378
H 0.5 0.57737 0.934617
H 0.5 0.57737 0.0653833
H 0.5 0.630279 0.126042
H 0.500001 0.698684 0.197089
H 0.5 0.630279 0.873958
H 0.5 0.751789 0.752496
H 0.5 0.698684 0.802911
H 0.5 0.823251 0.44995
H 0.5 0.823733 0.684369
H 0.500001 0.751789 0.247503
H 0.5 0.823733 0.315631
H 0.5 0.823251 0.55005
