data_global
_cell_length_a 10
_cell_length_b 30
_cell_length_c 17.22
_cell_angle_alpha 90
_cell_angle_beta 90
_cell_angle_gamma 90
_symmetry_space_group_name_H-M 'P -1'
loop_
_symmetry_equiv_pos_as_xyz
  'x,y,z'
loop_
_atom_site_label
_atom_site_fract_x
_atom_site_fract_y
_atom_site_fract_z
C 0.5 0.318985 0.218625
C 0.5 0.339798 0.464807
C 0.5 0.360405 0.709816
C 0.5 0.380827 0.955005
C 0.5 0.355849 0.166728
C 0.5 0.375931 0.412322
C 0.5 0.39659 0.65799
C 0.5 0.416478 0.903993
C 0.5 0.400025 0.198343
C 0.5 0.420077 0.443012
C 0.5 0.440601 0.688554
C 0.5 0.46114 0.933927
C 0.5 0.325404 0.297073
C 0.5 0.346508 0.543365
C 0.5 0.366901 0.788692
C 0.5 0.350069 0.0864709
C 0.5 0.368939 0.330135
C 0.5 0.389799 0.575457
C 0.5 0.409893 0.820883
C 0.5 0.437365 0.147864
C 0.5 0.457565 0.392273
C 0.5 0.478071 0.637609
C 0.5 0.498286 0.883158
C 0.5 0.481473 0.17852
C 0.5 0.501692 0.422948
C 0.5 0.521904 0.668505
C 0.5 0.542412 0.913833
C 0.5 0.386631 0.0359369
C 0.5 0.40639 0.27999
C 0.5 0.426972 0.524837
C 0.5 0.44727 0.770459
C 0.5 0.430953 0.0666277
C 0.5 0.450691 0.310845
C 0.5 0.471352 0.555624
C 0.5 0.491566 0.801096
C 0.5 0.518504 0.127586
C 0.5 0.538838 0.372179
C 0.5 0.559373 0.617558
C 0.5 0.579901 0.863096
C 0.5 0.562613 0.158239
C 0.5 0.583501 0.402111
C 0.5 0.603384 0.648123
C 0.5 0.624048 0.893782
C 0.5 0.467966 0.0154093
C 0.5 0.487909 0.260107
C 0.5 0.508411 0.505014
C 0.5 0.528627 0.750489
C 0.5 0.512069 0.0459988
C 0.5 0.532012 0.290696
C 0.5 0.552708 0.535651
C 0.5 0.573007 0.781273
C 0.5 0.599953 0.107759
C 0.5 0.619152 0.351098
C 0.5 0.639569 0.596297
C 0.5 0.660182 0.841299
C 0.5 0.644129 0.139372
C 0.5 0.549287 0.99526
C 0.5 0.569025 0.239477
C 0.5 0.590086 0.485225
C 0.5 0.610181 0.730655
C 0.5 0.63104 0.975968
C 0.5 0.593588 0.026112
C 0.5 0.613348 0.270165
C 0.5 0.633078 0.517419
C 0.5 0.653474 0.76274
C 0.5 0.674576 0.00902917
C 0.5 0.680995 0.0874762
C 0.5 0.64991 0.219628
H 0.5 0.285359 0.194482
H 0.5 0.305756 0.443195
H 0.5 0.326388 0.688073
H 0.5 0.346649 0.93376
H 0.5 0.296317 0.334757
H 0.5 0.317497 0.58117
H 0.5 0.337742 0.826203
H 0.5 0.316394 0.0623666
H 0.5 0.653329 0.372346
H 0.5 0.673584 0.618049
H 0.5 0.694223 0.862918
H 0.5 0.662241 0.479915
H 0.5 0.682487 0.724938
H 0.5 0.703664 0.971348
H 0.5 0.714622 0.111618
H 0.5 0.683588 0.243718
