data_global
_cell_length_a 10
_cell_length_b 30
_cell_length_c 8.52
_cell_angle_alpha 90
_cell_angle_beta 90
_cell_angle_gamma 90
_symmetry_space_group_name_H-M 'P -1'
loop_
_symmetry_equiv_pos_as_xyz
  'x,y,z'
loop_
_atom_site_label
_atom_site_fract_x
_atom_site_fract_y
_atom_site_fract_z
C 0.499999 0.252736 0.33007
C 0.499998 0.292862 0.416076
C 0.499999 0.252856 0.169604
C 0.499998 0.33392 0.333247
C 0.499999 0.37528 0.415515
C 0.499999 0.293048 0.0836684
C 0.499999 0.334234 0.166402
C 0.5 0.414936 0.330215
C 0.5 0.375511 0.0831552
C 0.5 0.416564 0.167457
C 0.500002 0.458891 0.0835034
C 0.500002 0.500001 0.160783
C 0.500002 0.585063 0.330214
C 0.5 0.62472 0.41551
C 0.500002 0.541111 0.0835038
C 0.500002 0.583436 0.167458
C 0.5 0.66608 0.333248
C 0.499999 0.707136 0.416071
C 0.500001 0.624489 0.0831571
C 0.5 0.665765 0.166402
C 0.499999 0.747264 0.330068
C 0.5 0.706951 0.0836713
C 0.5 0.747144 0.169604
H 0.500001 0.220808 0.390259
H 0.499999 0.220974 0.109125
H 0.499998 0.779192 0.390261
H 0.5 0.779026 0.10912
C 0.499999 0.252857 0.830381
C 0.499999 0.293048 0.916337
C 0.499998 0.252737 0.669948
C 0.499999 0.334235 0.833593
C 0.5 0.375511 0.916847
C 0.499998 0.292862 0.583921
C 0.499998 0.33392 0.666759
C 0.500001 0.416564 0.83254
C 0.500002 0.458891 0.916497
C 0.499999 0.375279 0.584483
C 0.5 0.414936 0.66979
C 0.500002 0.500001 0.839214
C 0.500002 0.541111 0.916496
C 0.500001 0.583436 0.832536
C 0.500001 0.624489 0.916845
C 0.499999 0.585063 0.669791
C 0.5 0.665765 0.833589
C 0.5 0.706952 0.916334
C 0.5 0.624721 0.584487
C 0.5 0.666079 0.66676
C 0.5 0.747143 0.830373
C 0.5 0.707138 0.583923
C 0.5 0.747263 0.669955
H 0.500001 0.220973 0.890879
H 0.499998 0.220807 0.609741
H 0.5 0.779027 0.890883
H 0.5 0.779193 0.609736
H 0.5 0.446197 0.394055
H 0.500002 0.500002 0.288158
H 0.500004 0.553803 0.394055
H 0.500001 0.446197 0.605945
H 0.500002 0.500002 0.71184
H 0.499997 0.553803 0.605943
