data_global
_cell_length_a 10
_cell_length_b 29.31
_cell_length_c 16.8696
_cell_angle_alpha 90
_cell_angle_beta 90
_cell_angle_gamma 90
_symmetry_space_group_name_H-M 'P -1'
loop_
_symmetry_equiv_pos_as_xyz
  'x,y,z'
loop_
_atom_site_label
_atom_site_fract_x
_atom_site_fract_y
_atom_site_fract_z
C 0.5 0.204481 0.16922
C 0.5 0.204105 0.913106
C 0.5 0.245502 0.210149
C 0.5 0.2448 0.956737
C 0.5 0.204105 0.0868936
C 0.5 0.204481 0.83078
C 0.5 0.287309 0.169618
C 0.5 0.287097 0.914987
C 0.5 0.330485 0.211863
C 0.5 0.332636 0.704733
C 0.5 0.329423 0.95785
C 0.5 0.2448 0.0432626
C 0.5 0.245502 0.789851
C 0.5 0.287097 0.0850131
C 0.5 0.287309 0.830382
C 0.5 0.372038 0.169066
C 0.5 0.37362 0.665083
C 0.5 0.371492 0.915934
C 0.5 0.414553 0.210479
C 0.5 0.415492 0.705954
C 0.5 0.413323 0.958001
C 0.5 0.329423 0.0421498
C 0.5 0.332636 0.295267
C 0.5 0.330485 0.788137
C 0.5 0.371492 0.084066
C 0.5 0.37362 0.334917
C 0.5 0.372038 0.830934
C 0.5 0.456714 0.167626
C 0.5 0.461338 0.416375
C 0.5 0.459047 0.665377
C 0.5 0.455751 0.915882
C 0.5 0.499315 0.208108
C 0.5 0.502339 0.457426
C 0.5 0.500686 0.708107
C 0.5 0.497661 0.957426
C 0.5 0.413323 0.0419986
C 0.5 0.415492 0.294046
C 0.5 0.414553 0.789521
C 0.5 0.455751 0.0841184
C 0.5 0.459047 0.334623
C 0.5 0.461338 0.583626
C 0.5 0.456714 0.832373
C 0.5 0.540953 0.165376
C 0.5 0.544249 0.415883
C 0.5 0.543287 0.667626
C 0.5 0.538662 0.916375
C 0.5 0.584508 0.205952
C 0.5 0.586677 0.458002
C 0.5 0.585448 0.710481
C 0.5 0.497661 0.0425741
C 0.5 0.500686 0.291893
C 0.5 0.502339 0.542574
C 0.5 0.499315 0.791892
C 0.5 0.538662 0.0836254
C 0.5 0.543287 0.332374
C 0.5 0.544249 0.584117
C 0.5 0.540953 0.834624
C 0.5 0.62638 0.165081
C 0.5 0.628508 0.415934
C 0.5 0.627962 0.669067
C 0.5 0.667363 0.204731
C 0.5 0.670577 0.45785
C 0.5 0.669515 0.711865
C 0.5 0.585448 0.289519
C 0.5 0.586677 0.541998
C 0.5 0.584508 0.794048
C 0.5 0.627962 0.330933
C 0.5 0.628508 0.584066
C 0.5 0.62638 0.834919
C 0.5 0.712903 0.414986
C 0.5 0.712691 0.66962
C 0.5 0.7552 0.456737
C 0.5 0.754498 0.710153
C 0.5 0.669515 0.288135
C 0.5 0.670577 0.54215
C 0.5 0.667363 0.79527
C 0.5 0.712691 0.33038
C 0.5 0.712903 0.585014
C 0.5 0.795895 0.413104
C 0.5 0.795518 0.669223
C 0.5 0.754498 0.289848
C 0.5 0.7552 0.543263
C 0.5 0.795518 0.330777
C 0.5 0.795895 0.586896
H 0.5 0.1724 0.201884
H 0.5 0.171332 0.94332
H 0.5 0.244748 0.274599
H 0.500001 0.171332 0.0566802
H 0.5 0.1724 0.798116
H 0.5 0.301482 0.669711
H 0.5 0.244748 0.725401
H 0.5 0.37281 0.60064
H 0.5 0.301482 0.330289
H 0.5 0.37281 0.39936
H 0.5 0.429664 0.449209
H 0.499999 0.429664 0.550791
H 0.500001 0.570336 0.94921
H 0.499999 0.570336 0.0507903
H 0.5 0.62719 0.100638
H 0.5 0.698517 0.169708
H 0.5 0.62719 0.899362
H 0.5 0.755252 0.774602
H 0.5 0.698517 0.830292
H 0.5 0.828667 0.443317
H 0.5 0.8276 0.701886
H 0.5 0.755252 0.225398
H 0.5 0.8276 0.298114
H 0.5 0.828667 0.556683
