data_global
_cell_length_a 10
_cell_length_b 30
_cell_length_c 11.27
_cell_angle_alpha 90
_cell_angle_beta 90
_cell_angle_gamma 90
_symmetry_space_group_name_H-M 'P -1'
loop_
_symmetry_equiv_pos_as_xyz
  'x,y,z'
loop_
_atom_site_label
_atom_site_fract_x
_atom_site_fract_y
_atom_site_fract_z
C 0.5 0.375187 0.732225
C 0.5 0.376211 0.40336
C 0.5 0.421425 0.760245
C 0.5 0.36032 0.617571
C 0.5 0.407858 0.976684
C 0.5 0.406383 0.308003
C 0.5 0.45271 0.666285
C 0.5 0.453551 0.332618
C 0.5 0.499767 0.690467
C 0.5 0.390762 0.520903
C 0.5 0.437171 0.881358
C 0.5 0.392144 0.189488
C 0.5 0.437641 0.546568
C 0.5 0.484549 0.90441
C 0.5 0.484637 0.238225
C 0.5 0.530392 0.595431
C 0.5 0.578582 0.954024
C 0.5 0.531336 0.262592
C 0.5 0.577544 0.619048
C 0.5 0.624819 0.982041
C 0.5 0.422463 0.0952262
C 0.5 0.468671 0.451682
C 0.5 0.515458 0.809858
C 0.5 0.469616 0.118841
C 0.5 0.51537 0.476052
C 0.5 0.562836 0.832909
C 0.5 0.562366 0.167707
C 0.5 0.607862 0.524783
C 0.5 0.609245 0.193371
C 0.5 0.50024 0.0238068
C 0.5 0.546456 0.381658
C 0.5 0.59215 0.737583
C 0.5 0.547298 0.0479838
C 0.5 0.593623 0.406273
C 0.5 0.639689 0.0967098
C 0.5 0.623797 0.310917
H 0.5 0.35064 0.803274
H 0.5 0.340463 0.384903
H 0.5 0.324643 0.598811
H 0.5 0.371978 0.962063
H 0.5 0.356452 0.170156
H 0.500001 0.649365 0.910997
H 0.5 0.643553 0.544118
H 0.5 0.628029 0.752207
H 0.5 0.675364 0.115464
H 0.5 0.659544 0.329369
