data_global
_cell_length_a 10
_cell_length_b 48.99
_cell_length_c 4.26
_cell_angle_alpha 90
_cell_angle_beta 90
_cell_angle_gamma 90
_symmetry_space_group_name_H-M 'P -1'
loop_
_symmetry_equiv_pos_as_xyz
  'x,y,z'
loop_
_atom_site_label
_atom_site_fract_x
_atom_site_fract_y
_atom_site_fract_z
C 0.5 0.123722 0.660364
C 0.5 0.148346 0.832033
C 0.5 0.123722 0.339635
C 0.5 0.173433 0.666902
C 0.5 0.198671 0.833931
C 0.5 0.148346 0.167966
C 0.5 0.173433 0.333098
C 0.5 0.223767 0.667081
C 0.5 0.248847 0.833197
C 0.5 0.198671 0.166068
C 0.5 0.223767 0.332919
C 0.5 0.274018 0.666475
C 0.5 0.29915 0.833102
C 0.5 0.248847 0.166803
C 0.5 0.274018 0.333526
C 0.5 0.324245 0.666759
C 0.5 0.349382 0.833487
C 0.5 0.29915 0.166898
C 0.5 0.324245 0.333242
C 0.5 0.374495 0.666791
C 0.5 0.399577 0.833263
C 0.5 0.349382 0.166513
C 0.5 0.374495 0.33321
C 0.5 0.424694 0.666536
C 0.5 0.449805 0.83324
C 0.5 0.399577 0.166737
C 0.5 0.424694 0.333464
C 0.5 0.474887 0.666746
C 0.5 0.5 0.833455
C 0.5 0.449805 0.16676
C 0.5 0.474887 0.333255
C 0.5 0.525113 0.666746
C 0.5 0.550195 0.83324
C 0.5 0.5 0.166546
C 0.5 0.525113 0.333255
C 0.5 0.575305 0.666536
C 0.5 0.600423 0.833263
C 0.5 0.550195 0.16676
C 0.5 0.575305 0.333464
C 0.5 0.625504 0.66679
C 0.5 0.650618 0.833487
C 0.5 0.600423 0.166737
C 0.5 0.625504 0.33321
C 0.5 0.675754 0.666759
C 0.5 0.70085 0.833102
C 0.5 0.650618 0.166513
C 0.5 0.675754 0.333242
C 0.5 0.725982 0.666475
C 0.5 0.751153 0.833197
C 0.5 0.70085 0.166898
C 0.5 0.725982 0.333525
C 0.5 0.776233 0.667081
C 0.5 0.801329 0.833931
C 0.5 0.751153 0.166803
C 0.5 0.776233 0.332919
C 0.5 0.826567 0.6669
C 0.5 0.851654 0.832034
C 0.5 0.801329 0.166068
C 0.5 0.826567 0.333099
C 0.5 0.876278 0.66036
C 0.5 0.851654 0.167966
C 0.5 0.876278 0.339639
H 0.499999 0.104217 0.781743
H 0.5 0.104217 0.218257
H 0.5 0.895784 0.781742
H 0.5 0.895784 0.218257
