data_global
_cell_length_a 10
_cell_length_b 29.31
_cell_length_c 17.5512
_cell_angle_alpha 90
_cell_angle_beta 90
_cell_angle_gamma 90
_symmetry_space_group_name_H-M 'P -1'
loop_
_symmetry_equiv_pos_as_xyz
  'x,y,z'
loop_
_atom_site_label
_atom_site_fract_x
_atom_site_fract_y
_atom_site_fract_z
C 0.5 0.206411 0.16189
C 0.5 0.206408 0.91713
C 0.5 0.24738 0.201247
C 0.5 0.247327 0.958556
C 0.5 0.206408 0.0828703
C 0.5 0.206411 0.83811
C 0.5 0.289312 0.162573
C 0.5 0.28968 0.918599
C 0.5 0.332196 0.203775
C 0.5 0.332975 0.716116
C 0.5 0.332397 0.959377
C 0.5 0.247327 0.041444
C 0.5 0.24738 0.798753
C 0.5 0.28968 0.081401
C 0.5 0.289312 0.837428
C 0.5 0.374294 0.163887
C 0.5 0.373164 0.675864
C 0.5 0.374562 0.918519
C 0.5 0.416209 0.206001
C 0.5 0.415801 0.7124
C 0.5 0.416697 0.959042
C 0.5 0.332397 0.0406233
C 0.5 0.332975 0.283884
C 0.5 0.332196 0.796225
C 0.5 0.374562 0.0814807
C 0.5 0.373164 0.324136
C 0.5 0.374294 0.836113
C 0.5 0.458702 0.165201
C 0.5 0.458686 0.412772
C 0.5 0.457997 0.667951
C 0.5 0.459008 0.916903
C 0.5 0.50006 0.208555
C 0.5 0.498515 0.457392
C 0.5 0.49994 0.708555
C 0.5 0.501485 0.957393
C 0.5 0.416697 0.0409579
C 0.5 0.415801 0.2876
C 0.5 0.416209 0.793999
C 0.5 0.459008 0.0830971
C 0.5 0.457997 0.33205
C 0.5 0.458686 0.587228
C 0.5 0.458702 0.834799
C 0.5 0.542003 0.16795
C 0.5 0.540992 0.416903
C 0.5 0.541298 0.665201
C 0.5 0.541314 0.912772
C 0.5 0.584199 0.2124
C 0.5 0.583303 0.459042
C 0.5 0.583791 0.706001
C 0.5 0.501485 0.0426075
C 0.5 0.49994 0.291445
C 0.5 0.498515 0.542608
C 0.5 0.50006 0.791445
C 0.5 0.541314 0.0872281
C 0.5 0.541298 0.334799
C 0.5 0.540992 0.583097
C 0.5 0.542003 0.83205
C 0.5 0.626836 0.175864
C 0.5 0.625438 0.418519
C 0.5 0.625705 0.663887
C 0.5 0.667025 0.216116
C 0.5 0.667603 0.459377
C 0.5 0.667804 0.703775
C 0.5 0.583791 0.293999
C 0.5 0.583303 0.540958
C 0.5 0.584199 0.7876
C 0.5 0.625705 0.336113
C 0.5 0.625438 0.581481
C 0.5 0.626836 0.824136
C 0.5 0.71032 0.418599
C 0.5 0.710688 0.662573
C 0.5 0.752673 0.458556
C 0.5 0.75262 0.701247
C 0.5 0.667804 0.296225
C 0.5 0.667603 0.540623
C 0.5 0.667025 0.783884
C 0.5 0.710688 0.337428
C 0.5 0.71032 0.581401
C 0.5 0.793592 0.41713
C 0.5 0.793589 0.66189
C 0.5 0.75262 0.298753
C 0.5 0.752673 0.541444
C 0.5 0.793589 0.33811
C 0.5 0.793592 0.58287
H 0.5 0.174222 0.193033
H 0.5 0.173773 0.946611
H 0.5 0.246428 0.263148
H 0.5 0.173773 0.053389
H 0.5 0.174222 0.806967
H 0.5 0.301231 0.684091
H 0.5 0.246428 0.736852
H 0.5 0.371384 0.613982
H 0.5 0.301231 0.315909
H 0.5 0.371384 0.386018
H 0.5 0.426137 0.442469
H 0.5 0.426137 0.557531
H 0.5 0.573864 0.942469
H 0.5 0.573864 0.0575315
H 0.5 0.628616 0.113982
H 0.5 0.698769 0.184091
H 0.5 0.628616 0.886018
H 0.5 0.753572 0.763148
H 0.5 0.698769 0.815909
H 0.5 0.826227 0.446612
H 0.5 0.825778 0.693033
H 0.5 0.753572 0.236852
H 0.5 0.825778 0.306967
H 0.5 0.826227 0.553388
