data_global
_cell_length_a 10
_cell_length_b 29.31
_cell_length_c 17.892
_cell_angle_alpha 90
_cell_angle_beta 90
_cell_angle_gamma 90
_symmetry_space_group_name_H-M 'P -1'
loop_
_symmetry_equiv_pos_as_xyz
  'x,y,z'
loop_
_atom_site_label
_atom_site_fract_x
_atom_site_fract_y
_atom_site_fract_z
C 0.5 0.207539 0.158251
C 0.5 0.20783 0.919184
C 0.5 0.248431 0.196967
C 0.5 0.248857 0.959433
C 0.5 0.20783 0.0808158
C 0.5 0.207539 0.84175
C 0.5 0.290478 0.159324
C 0.5 0.291167 0.920242
C 0.5 0.33318 0.200094
C 0.5 0.3333 0.721364
C 0.5 0.334003 0.960085
C 0.5 0.248858 0.0405671
C 0.5 0.248431 0.803033
C 0.5 0.291167 0.0797578
C 0.5 0.290478 0.840676
C 0.5 0.3755 0.16156
C 0.5 0.372997 0.680679
C 0.5 0.376141 0.919649
C 0.5 0.417049 0.204053
C 0.5 0.415987 0.71521
C 0.5 0.418388 0.959488
C 0.5 0.334003 0.0399148
C 0.5 0.3333 0.278636
C 0.5 0.33318 0.799906
C 0.5 0.376141 0.0803509
C 0.5 0.372998 0.319322
C 0.5 0.3755 0.83844
C 0.5 0.45967 0.164237
C 0.5 0.457407 0.410895
C 0.5 0.457523 0.669299
C 0.5 0.460582 0.917323
C 0.5 0.500409 0.208749
C 0.5 0.496607 0.457145
C 0.5 0.499591 0.708749
C 0.5 0.503392 0.957145
C 0.5 0.418388 0.0405121
C 0.5 0.415987 0.28479
C 0.5 0.417049 0.795947
C 0.5 0.460582 0.0826772
C 0.5 0.457523 0.330701
C 0.5 0.457407 0.589105
C 0.5 0.45967 0.835763
C 0.5 0.542477 0.169299
C 0.5 0.539418 0.417323
C 0.5 0.540329 0.664236
C 0.5 0.542593 0.910895
C 0.5 0.584013 0.215211
C 0.5 0.581612 0.459488
C 0.5 0.582951 0.704053
C 0.5 0.503392 0.0428548
C 0.5 0.499591 0.291251
C 0.5 0.496607 0.542855
C 0.5 0.500409 0.791251
C 0.5 0.542593 0.0891053
C 0.5 0.540329 0.335764
C 0.5 0.539418 0.582677
C 0.5 0.542477 0.830701
C 0.5 0.627002 0.180679
C 0.5 0.623859 0.419649
C 0.5 0.6245 0.66156
C 0.5 0.6667 0.221365
C 0.5 0.665998 0.460085
C 0.5 0.66682 0.700093
C 0.5 0.582951 0.295948
C 0.5 0.581612 0.540512
C 0.5 0.584013 0.784789
C 0.5 0.6245 0.33844
C 0.5 0.623859 0.580351
C 0.5 0.627002 0.819321
C 0.5 0.708833 0.420243
C 0.5 0.709522 0.659324
C 0.5 0.751143 0.459433
C 0.5 0.751569 0.696966
C 0.5 0.66682 0.299907
C 0.5 0.665998 0.539915
C 0.5 0.666701 0.778635
C 0.5 0.709522 0.340676
C 0.5 0.708833 0.579757
C 0.5 0.79217 0.419185
C 0.5 0.79246 0.658251
C 0.5 0.751569 0.303034
C 0.5 0.751142 0.540567
C 0.5 0.79246 0.341749
C 0.5 0.79217 0.580815
H 0.5 0.175233 0.188485
H 0.5 0.175325 0.948413
H 0.5 0.247248 0.257645
H 0.5 0.175325 0.051587
H 0.5 0.175233 0.811515
H 0.5 0.301283 0.690794
H 0.5 0.247248 0.742355
H 0.5 0.370374 0.62001
H 0.5 0.301283 0.309206
H 0.5 0.370374 0.37999
H 0.5 0.424303 0.438517
H 0.5 0.424303 0.561483
H 0.5 0.575697 0.938515
H 0.5 0.575697 0.0614851
H 0.5 0.629626 0.120011
H 0.5 0.698717 0.190795
H 0.5 0.629626 0.879989
H 0.5 0.752753 0.757645
H 0.5 0.698717 0.809205
H 0.5 0.824675 0.448413
H 0.5 0.824766 0.688485
H 0.5 0.752753 0.242355
H 0.5 0.824766 0.311515
H 0.5 0.824675 0.551587
