data_global
_cell_length_a 10
_cell_length_b 29.31
_cell_length_c 15.5064
_cell_angle_alpha 90
_cell_angle_beta 90
_cell_angle_gamma 90
_symmetry_space_group_name_H-M 'P -1'
loop_
_symmetry_equiv_pos_as_xyz
  'x,y,z'
loop_
_atom_site_label
_atom_site_fract_x
_atom_site_fract_y
_atom_site_fract_z
C 0.5 0.199659 0.185785
C 0.5 0.198488 0.90401
C 0.5 0.240854 0.230155
C 0.5 0.238837 0.952561
C 0.5 0.198488 0.09599
C 0.5 0.199659 0.814215
C 0.5 0.28253 0.185615
C 0.5 0.281136 0.906789
C 0.5 0.32649 0.230051
C 0.5 0.331771 0.679361
C 0.5 0.322786 0.95441
C 0.5 0.238837 0.0474397
C 0.5 0.240854 0.769846
C 0.5 0.281136 0.093211
C 0.5 0.28253 0.814386
C 0.5 0.366903 0.180523
C 0.499999 0.374407 0.641258
C 0.5 0.364849 0.910328
C 0.499999 0.410631 0.220004
C 0.499998 0.41456 0.691892
C 0.5 0.406296 0.955531
C 0.5 0.322786 0.0455901
C 0.5 0.331771 0.320639
C 0.5 0.32649 0.769949
C 0.5 0.364848 0.0896732
C 0.5 0.374407 0.358742
C 0.5 0.366903 0.819476
C 0.499999 0.452515 0.173433
C 0.500007 0.466722 0.421784
C 0.499998 0.460893 0.662023
C 0.5 0.449121 0.91378
C 0.499998 0.497554 0.207046
C 0.500004 0.509459 0.456288
C 0.499998 0.502446 0.707043
C 0.500001 0.490542 0.956284
C 0.5 0.406296 0.0444684
C 0.5 0.41456 0.308106
C 0.499999 0.410631 0.779998
C 0.5 0.449122 0.0862216
C 0.500001 0.460893 0.337979
C 0.499996 0.466723 0.578214
C 0.499999 0.452515 0.826565
C 0.499999 0.539106 0.162022
C 0.500002 0.550879 0.413777
C 0.499998 0.547485 0.673434
C 0.5 0.533276 0.921784
C 0.499999 0.58544 0.191893
C 0.500001 0.593704 0.455533
C 0.499999 0.589369 0.720002
C 0.500002 0.49054 0.0437156
C 0.499998 0.502446 0.292954
C 0.5 0.509459 0.543713
C 0.499998 0.497554 0.792957
C 0.500003 0.533278 0.0782152
C 0.5 0.547485 0.326567
C 0.499999 0.550879 0.586221
C 0.499999 0.539107 0.837979
C 0.5 0.625593 0.141258
C 0.500001 0.635152 0.410327
C 0.499999 0.633097 0.680524
C 0.5 0.668229 0.179361
C 0.5 0.677214 0.45441
C 0.5 0.67351 0.730051
C 0.5 0.589369 0.279997
C 0.5 0.593704 0.544468
C 0.499999 0.58544 0.808107
C 0.5 0.633097 0.319477
C 0.5 0.635151 0.589673
C 0.499999 0.625593 0.858742
C 0.5 0.718864 0.406789
C 0.5 0.71747 0.685615
C 0.5 0.761163 0.45256
C 0.5 0.759146 0.730155
C 0.5 0.67351 0.269949
C 0.5 0.677214 0.54559
C 0.5 0.668229 0.820639
C 0.5 0.71747 0.314385
C 0.5 0.718864 0.593211
C 0.5 0.801512 0.40401
C 0.5 0.800341 0.685785
C 0.5 0.759146 0.269845
C 0.5 0.761163 0.547439
C 0.5 0.800341 0.314215
C 0.5 0.801512 0.59599
H 0.5 0.167719 0.221857
H 0.5 0.165408 0.935929
H 0.5 0.240341 0.30037
H 0.5 0.165408 0.0640719
H 0.5 0.167719 0.778143
H 0.5 0.301915 0.637569
H 0.5 0.240341 0.699631
H 0.5 0.37562 0.571095
H 0.5 0.301915 0.362432
H 0.5 0.37562 0.428905
H 0.50001 0.43576 0.456798
H 0.499994 0.43576 0.543202
H 0.499999 0.564241 0.956798
H 0.500005 0.56424 0.0432023
H 0.499999 0.62438 0.0710948
H 0.5 0.698085 0.137568
H 0.5 0.62438 0.928905
H 0.5 0.759659 0.80037
H 0.5 0.698085 0.862432
H 0.5 0.834591 0.435928
H 0.5 0.832281 0.721857
H 0.5 0.759659 0.19963
H 0.5 0.832281 0.278143
H 0.5 0.834591 0.564072
