data_global
_cell_length_a 10
_cell_length_b 30
_cell_length_c 21.3
_cell_angle_alpha 90
_cell_angle_beta 90
_cell_angle_gamma 90
_symmetry_space_group_name_H-M 'P -1'
loop_
_symmetry_equiv_pos_as_xyz
  'x,y,z'
loop_
_atom_site_label
_atom_site_fract_x
_atom_site_fract_y
_atom_site_fract_z
C 0.5 0.294932 0.331115
C 0.5 0.295028 0.532019
C 0.5 0.29524 0.732876
C 0.5 0.336766 0.167965
C 0.5 0.335313 0.366273
C 0.5 0.335304 0.566754
C 0.5 0.336081 0.766629
C 0.5 0.336586 0.967831
C 0.5 0.29524 0.267124
C 0.5 0.295028 0.467981
C 0.5 0.294932 0.668885
C 0.5 0.376449 0.134126
C 0.5 0.376596 0.333685
C 0.5 0.37638 0.533423
C 0.5 0.377051 0.732944
C 0.5 0.376634 0.933613
C 0.5 0.417815 0.167054
C 0.5 0.41777 0.367064
C 0.5 0.417699 0.566583
C 0.5 0.417915 0.766404
C 0.5 0.417616 0.96657
C 0.5 0.336586 0.0321692
C 0.5 0.336081 0.233371
C 0.5 0.335304 0.433246
C 0.5 0.335313 0.633727
C 0.5 0.336766 0.832035
C 0.5 0.376634 0.0663871
C 0.5 0.377051 0.267056
C 0.5 0.37638 0.466577
C 0.5 0.376596 0.666315
C 0.5 0.376449 0.865874
C 0.5 0.458979 0.133515
C 0.5 0.458926 0.333626
C 0.5 0.458874 0.533254
C 0.5 0.459059 0.732939
C 0.5 0.459031 0.93314
C 0.5 0.5 0.166815
C 0.5 0.5 0.366893
C 0.5 0.5 0.566457
C 0.5 0.5 0.766232
C 0.5 0.5 0.966347
C 0.5 0.417616 0.0334296
C 0.5 0.417915 0.233596
C 0.5 0.417699 0.433417
C 0.5 0.41777 0.632936
C 0.5 0.417815 0.832946
C 0.5 0.459031 0.0668596
C 0.5 0.459059 0.267061
C 0.5 0.458874 0.466746
C 0.5 0.458926 0.666374
C 0.5 0.458979 0.866485
C 0.5 0.541021 0.133515
C 0.5 0.541074 0.333626
C 0.5 0.541126 0.533254
C 0.5 0.540941 0.732939
C 0.5 0.540969 0.93314
C 0.5 0.582185 0.167054
C 0.5 0.58223 0.367064
C 0.5 0.582301 0.566583
C 0.5 0.582085 0.766404
C 0.5 0.582384 0.96657
C 0.5 0.5 0.0336533
C 0.5 0.5 0.233768
C 0.5 0.5 0.433543
C 0.5 0.5 0.633107
C 0.5 0.5 0.833185
C 0.5 0.540969 0.0668596
C 0.5 0.540941 0.267061
C 0.5 0.541126 0.466746
C 0.5 0.541074 0.666374
C 0.5 0.541021 0.866485
C 0.5 0.623551 0.134126
C 0.5 0.623404 0.333685
C 0.5 0.62362 0.533423
C 0.5 0.622949 0.732944
C 0.5 0.623366 0.933613
C 0.5 0.663234 0.167965
C 0.5 0.664687 0.366273
C 0.5 0.664696 0.566754
C 0.5 0.663919 0.766629
C 0.5 0.663414 0.967831
C 0.5 0.582384 0.0334295
C 0.5 0.582085 0.233596
C 0.5 0.582301 0.433417
C 0.5 0.58223 0.632936
C 0.5 0.582185 0.832946
C 0.5 0.623366 0.0663871
C 0.5 0.622949 0.267056
C 0.5 0.62362 0.466577
C 0.5 0.623404 0.666315
C 0.5 0.623551 0.865874
C 0.5 0.705068 0.331115
C 0.5 0.704972 0.532019
C 0.5 0.70476 0.732876
C 0.5 0.663414 0.0321692
C 0.5 0.663919 0.233371
C 0.5 0.664696 0.433246
C 0.5 0.664687 0.633727
C 0.5 0.663234 0.832035
C 0.5 0.70476 0.267124
C 0.5 0.704972 0.467981
C 0.5 0.705068 0.668885
H 0.5 0.263017 0.355314
H 0.5 0.263147 0.556286
H 0.5 0.264052 0.759194
H 0.5 0.264052 0.240806
H 0.5 0.263147 0.443715
H 0.5 0.263017 0.644686
H 0.5 0.736983 0.355314
H 0.5 0.736853 0.556285
H 0.5 0.735948 0.759194
H 0.5 0.735948 0.240806
H 0.5 0.736853 0.443715
H 0.5 0.736983 0.644686
H 0.5 0.304736 0.144005
H 0.5 0.304673 0.943658
H 0.5 0.304673 0.0563422
H 0.5 0.304736 0.855995
H 0.5 0.695264 0.144005
H 0.5 0.695327 0.943658
H 0.5 0.695327 0.0563422
H 0.5 0.695264 0.855995
