data_global
_cell_length_a 10
_cell_length_b 29.31
_cell_length_c 15.8472
_cell_angle_alpha 90
_cell_angle_beta 90
_cell_angle_gamma 90
_symmetry_space_group_name_H-M 'P -1'
loop_
_symmetry_equiv_pos_as_xyz
  'x,y,z'
loop_
_atom_site_label
_atom_site_fract_x
_atom_site_fract_y
_atom_site_fract_z
C 0.5 0.200899 0.181382
C 0.5 0.199914 0.906427
C 0.5 0.242034 0.224849
C 0.5 0.240339 0.953674
C 0.5 0.199915 0.0935734
C 0.5 0.200899 0.818618
C 0.5 0.283731 0.181348
C 0.5 0.28264 0.908994
C 0.5 0.327501 0.225183
C 0.5 0.331934 0.686112
C 0.5 0.324454 0.955318
C 0.5 0.240339 0.0463264
C 0.5 0.242034 0.775151
C 0.5 0.28264 0.091006
C 0.5 0.283731 0.818653
C 0.5 0.368202 0.177445
C 0.499999 0.374174 0.647568
C 0.5 0.366525 0.911838
C 0.5 0.41166 0.217451
C 0.499999 0.414778 0.695666
C 0.5 0.408067 0.956211
C 0.5 0.324454 0.0446817
C 0.5 0.331934 0.313889
C 0.5 0.327501 0.774817
C 0.5 0.366525 0.0881612
C 0.5 0.374174 0.352432
C 0.5 0.368202 0.822555
C 0.5 0.453599 0.171795
C 0.500001 0.465315 0.420642
C 0.499999 0.460433 0.662653
C 0.5 0.450814 0.914374
C 0.5 0.498037 0.207319
C 0.5 0.50769 0.456693
C 0.499999 0.501964 0.70732
C 0.5 0.492309 0.956692
C 0.5 0.408067 0.0437895
C 0.5 0.414778 0.304333
C 0.5 0.41166 0.782548
C 0.5 0.450814 0.085624
C 0.500001 0.460433 0.337351
C 0.499999 0.465315 0.579353
C 0.5 0.453598 0.828207
C 0.5 0.539567 0.16266
C 0.5 0.549186 0.414372
C 0.499999 0.546402 0.671793
C 0.5 0.534686 0.920649
C 0.5 0.585222 0.195665
C 0.5 0.591933 0.456212
C 0.5 0.58834 0.71745
C 0.5 0.49231 0.043309
C 0.500001 0.501964 0.292679
C 0.499999 0.50769 0.543308
C 0.5 0.498037 0.79268
C 0.5 0.534685 0.0793465
C 0.500001 0.546402 0.328209
C 0.499999 0.549186 0.585626
C 0.5 0.539566 0.837344
C 0.5 0.625826 0.14757
C 0.5 0.633475 0.411838
C 0.5 0.631798 0.677445
C 0.5 0.668066 0.186111
C 0.5 0.675546 0.455319
C 0.5 0.672498 0.725182
C 0.500001 0.588339 0.282549
C 0.5 0.591933 0.543789
C 0.5 0.585222 0.804335
C 0.5 0.631798 0.322555
C 0.5 0.633475 0.588161
C 0.5 0.625826 0.852431
C 0.5 0.71736 0.408994
C 0.5 0.716269 0.681348
C 0.5 0.759661 0.453674
C 0.5 0.757966 0.724849
C 0.5 0.672498 0.274817
C 0.5 0.675546 0.544681
C 0.5 0.668066 0.813889
C 0.5 0.716269 0.318652
C 0.5 0.717359 0.591006
C 0.5 0.800086 0.406427
C 0.5 0.799101 0.681383
C 0.5 0.757966 0.275152
C 0.5 0.759661 0.546326
C 0.5 0.799101 0.318618
C 0.5 0.800086 0.593573
H 0.5 0.168921 0.216542
H 0.5 0.166896 0.937873
H 0.5 0.241468 0.293549
H 0.5 0.166896 0.062127
H 0.5 0.168921 0.783458
H 0.5 0.30172 0.646137
H 0.5 0.241468 0.706452
H 0.499999 0.374935 0.578891
H 0.5 0.30172 0.353863
H 0.5 0.374935 0.421109
H 0.500001 0.434288 0.455601
H 0.499998 0.434288 0.5444
H 0.5 0.565711 0.9556
H 0.5 0.565711 0.0444003
H 0.5 0.625065 0.0788907
H 0.5 0.69828 0.146137
H 0.5 0.625065 0.921109
H 0.5 0.758532 0.793549
H 0.5 0.69828 0.853863
H 0.5 0.833104 0.437873
H 0.5 0.831079 0.716542
H 0.5 0.758533 0.206451
H 0.5 0.831079 0.283458
H 0.5 0.833104 0.562127
