data_global
_cell_length_a 10
_cell_length_b 30
_cell_length_c 17.04
_cell_angle_alpha 90
_cell_angle_beta 90
_cell_angle_gamma 90
_symmetry_space_group_name_H-M 'P -1'
loop_
_symmetry_equiv_pos_as_xyz
  'x,y,z'
loop_
_atom_site_label
_atom_site_fract_x
_atom_site_fract_y
_atom_site_fract_z
C 0.5 0.335793 0.414087
C 0.5 0.336098 0.6658
C 0.5 0.377671 0.210165
C 0.5 0.376189 0.458325
C 0.5 0.376968 0.708289
C 0.5 0.377577 0.959873
C 0.5 0.336099 0.3342
C 0.5 0.335793 0.585913
C 0.5 0.417505 0.167598
C 0.5 0.41758 0.417161
C 0.5 0.417994 0.666039
C 0.5 0.417708 0.916826
C 0.5 0.458848 0.208806
C 0.5 0.458824 0.458561
C 0.5 0.458893 0.707889
C 0.5 0.458747 0.95808
C 0.5 0.377577 0.0401271
C 0.5 0.376968 0.291712
C 0.5 0.376189 0.541675
C 0.5 0.377671 0.789835
C 0.5 0.417708 0.0831738
C 0.5 0.417994 0.333961
C 0.5 0.41758 0.582839
C 0.5 0.417505 0.832402
C 0.5 0.5 0.16684
C 0.5 0.5 0.416779
C 0.5 0.5 0.666151
C 0.5 0.5 0.916253
C 0.5 0.541152 0.208806
C 0.5 0.541176 0.458561
C 0.5 0.541107 0.707889
C 0.5 0.541253 0.95808
C 0.5 0.458747 0.0419194
C 0.5 0.458893 0.292111
C 0.5 0.458824 0.541439
C 0.5 0.458848 0.791194
C 0.5 0.5 0.0837472
C 0.5 0.5 0.333849
C 0.5 0.5 0.583221
C 0.5 0.5 0.83316
C 0.5 0.582495 0.167598
C 0.5 0.58242 0.417161
C 0.5 0.582006 0.666039
C 0.5 0.582292 0.916826
C 0.5 0.622329 0.210165
C 0.5 0.623811 0.458325
C 0.5 0.623032 0.708289
C 0.5 0.622423 0.959872
C 0.5 0.541253 0.0419193
C 0.5 0.541107 0.292111
C 0.5 0.541176 0.541439
C 0.5 0.541152 0.791194
C 0.5 0.582292 0.0831738
C 0.5 0.582006 0.333961
C 0.5 0.58242 0.582839
C 0.5 0.582495 0.832401
C 0.5 0.664207 0.414087
C 0.5 0.663901 0.6658
C 0.5 0.622423 0.0401269
C 0.5 0.623032 0.291712
C 0.5 0.623811 0.541675
C 0.5 0.622329 0.789835
C 0.5 0.663901 0.3342
C 0.5 0.664207 0.585913
H 0.5 0.303889 0.444363
H 0.5 0.30487 0.698565
H 0.5 0.30487 0.301436
H 0.5 0.303889 0.555638
H 0.5 0.696111 0.444363
H 0.5 0.69513 0.698565
H 0.5 0.69513 0.301436
H 0.5 0.696111 0.555637
H 0.5 0.345676 0.1801
H 0.5 0.345656 0.929665
H 0.5 0.345656 0.0703343
H 0.5 0.345676 0.8199
H 0.5 0.654324 0.1801
H 0.5 0.654344 0.929665
H 0.5 0.654344 0.0703341
H 0.5 0.654324 0.8199
