data_global
_cell_length_a 10
_cell_length_b 20.7
_cell_length_c 4.26
_cell_angle_alpha 90
_cell_angle_beta 90
_cell_angle_gamma 90
_symmetry_space_group_name_H-M 'P -1'
loop_
_symmetry_equiv_pos_as_xyz
  'x,y,z'
loop_
_atom_site_label
_atom_site_fract_x
_atom_site_fract_y
_atom_site_fract_z
C 0.500001 0.292644 0.660016
C 0.5 0.351051 0.832681
C 0.500001 0.292644 0.339984
C 0.5 0.410523 0.667069
C 0.5 0.470213 0.83397
C 0.5 0.351051 0.167319
C 0.5 0.410523 0.332932
C 0.5 0.529787 0.666031
C 0.5 0.589476 0.83293
C 0.5 0.470213 0.166031
C 0.5 0.529787 0.333969
C 0.5 0.648949 0.667319
C 0.5 0.707356 0.839982
C 0.5 0.589476 0.167069
C 0.5 0.64895 0.332681
C 0.5 0.707356 0.160019
H 0.500001 0.246485 0.781342
H 0.5 0.246485 0.218657
H 0.5 0.753516 0.718657
H 0.5 0.753516 0.281343
