data_global
_cell_length_a 10
_cell_length_b 31.77
_cell_length_c 4.26
_cell_angle_alpha 90
_cell_angle_beta 90
_cell_angle_gamma 90
_symmetry_space_group_name_H-M 'P -1'
loop_
_symmetry_equiv_pos_as_xyz
  'x,y,z'
loop_
_atom_site_label
_atom_site_fract_x
_atom_site_fract_y
_atom_site_fract_z
C 0.5 0.19069 0.660224
C 0.5 0.228688 0.832242
C 0.5 0.19069 0.339776
C 0.5 0.267377 0.666946
C 0.5 0.306273 0.833993
C 0.5 0.228688 0.167759
C 0.5 0.267377 0.333055
C 0.5 0.345004 0.666841
C 0.5 0.383694 0.833177
C 0.5 0.306273 0.166007
C 0.5 0.345004 0.33316
C 0.5 0.422473 0.666412
C 0.5 0.461257 0.833431
C 0.5 0.383694 0.166824
C 0.5 0.422473 0.333588
C 0.5 0.5 0.666772
C 0.5 0.538743 0.833432
C 0.5 0.461257 0.16657
C 0.5 0.5 0.333228
C 0.5 0.577527 0.666411
C 0.5 0.616307 0.833176
C 0.5 0.538743 0.166568
C 0.5 0.577527 0.333589
C 0.5 0.654996 0.66684
C 0.5 0.693727 0.833993
C 0.5 0.616307 0.166823
C 0.5 0.654996 0.333159
C 0.5 0.732623 0.666948
C 0.5 0.771311 0.832241
C 0.5 0.693727 0.166007
C 0.5 0.732623 0.333052
C 0.5 0.80931 0.660232
C 0.5 0.771312 0.167759
C 0.5 0.809309 0.339767
H 0.5 0.160622 0.781698
H 0.5 0.160622 0.218302
H 0.5 0.839378 0.781697
H 0.5 0.839378 0.218303
