data_global
_cell_length_a 10
_cell_length_b 21.0678
_cell_length_c 17.04
_cell_angle_alpha 90
_cell_angle_beta 90
_cell_angle_gamma 90
_symmetry_space_group_name_H-M 'P -1'
loop_
_symmetry_equiv_pos_as_xyz
  'x,y,z'
loop_
_atom_site_label
_atom_site_fract_x
_atom_site_fract_y
_atom_site_fract_z
C 0.5 0.237329 0.166667
C 0.5 0.237329 0.416667
C 0.5 0.237329 0.666667
C 0.5 0.237329 0.916667
C 0.5 0.2957 0.208333
C 0.5 0.2957 0.458333
C 0.5 0.2957 0.708333
C 0.5 0.2957 0.958333
C 0.5 0.237329 0.0833333
C 0.5 0.237329 0.333333
C 0.5 0.237329 0.583333
C 0.5 0.237329 0.833333
C 0.5 0.354072 0.166667
C 0.5 0.354072 0.416667
C 0.5 0.354072 0.666667
C 0.5 0.354072 0.916667
C 0.5 0.412443 0.208333
C 0.5 0.412443 0.458333
C 0.5 0.412443 0.708333
C 0.5 0.412443 0.958333
C 0.5 0.2957 0.0416667
C 0.5 0.2957 0.291667
C 0.5 0.2957 0.541667
C 0.5 0.2957 0.791667
C 0.5 0.354072 0.0833333
C 0.5 0.354072 0.333333
C 0.5 0.354072 0.583333
C 0.5 0.354072 0.833333
C 0.5 0.470814 0.166667
C 0.5 0.470814 0.416667
C 0.5 0.470814 0.666667
C 0.5 0.470814 0.916667
C 0.5 0.529186 0.208333
C 0.5 0.529186 0.458333
C 0.5 0.529186 0.708333
C 0.5 0.529186 0.958333
C 0.5 0.412443 0.0416667
C 0.5 0.412443 0.291667
C 0.5 0.412443 0.541667
C 0.5 0.412443 0.791667
C 0.5 0.470814 0.0833333
C 0.5 0.470814 0.333333
C 0.5 0.470814 0.583333
C 0.5 0.470814 0.833333
C 0.5 0.587557 0.166667
C 0.5 0.587557 0.416667
C 0.5 0.587557 0.666667
C 0.5 0.587557 0.916667
C 0.5 0.645928 0.208333
C 0.5 0.645928 0.458333
C 0.5 0.645928 0.708333
C 0.5 0.645928 0.958333
C 0.5 0.529186 0.0416667
C 0.5 0.529186 0.291667
C 0.5 0.529186 0.541667
C 0.5 0.529186 0.791667
C 0.5 0.587557 0.0833333
C 0.5 0.587557 0.333333
C 0.5 0.587557 0.583333
C 0.5 0.587557 0.833333
C 0.5 0.7043 0.166667
C 0.5 0.7043 0.416667
C 0.5 0.7043 0.666667
C 0.5 0.7043 0.916667
C 0.5 0.762671 0.208333
C 0.5 0.762671 0.458333
C 0.5 0.762671 0.708333
C 0.5 0.762671 0.958333
C 0.5 0.645928 0.0416667
C 0.5 0.645928 0.291667
C 0.5 0.645928 0.541667
C 0.5 0.645928 0.791667
C 0.5 0.7043 0.0833333
C 0.5 0.7043 0.333333
C 0.5 0.7043 0.833333
C 0.5 0.762671 0.0416667
C 0.5 0.762671 0.291667
C 0.5 0.762671 0.791667
H 0.5 0.192523 0.19865
H 0.5 0.192523 0.44865
H 0.5 0.192523 0.69865
H 0.5 0.192523 0.94865
H 0.5 0.192523 0.0513498
H 0.5 0.192523 0.30135
H 0.5 0.192523 0.55135
H 0.5 0.192523 0.80135
H 0.5 0.807477 0.17635
H 0.5 0.807477 0.42635
H 0.5 0.807477 0.67635
H 0.5 0.807477 0.92635
H 0.5 0.807477 0.0736502
H 0.5 0.807477 0.32365
H 0.5 0.807477 0.82365
H 0.5 0.7043 0.6027
H 0.5 0.762671 0.5223
H 0.5 0.690735 0.57365
