data_2Z_1A_W9
_audit_creation_method                 'DeviceStudio'
_symmetry_space_group_name_H-M         'PM'
_symmetry_Int_Tables_number            6
_symmetry_cell_setting                 Orthorhombic
loop_
_symmetry_equiv_pos_as_xyz
x,y,z
-x,y,z
_cell_length_a                         10
_cell_length_b                         30
_cell_length_c                         8.87
_cell_angle_alpha                      90
_cell_angle_beta                       90
_cell_angle_gamma                      90
loop_
_atom_site_label
_atom_site_type_symbol
_atom_site_fract_x
_atom_site_fract_y
_atom_site_fract_z
C	C	0.5	0.326054	0.538437
C	C	0.5	0.365432	0.999871
C	C	0.5	0.358875	0.423084
C	C	0.5	0.398253	0.884518
C	C	0.5	0.404822	0.461542
C	C	0.5	0.444201	0.922976
C	C	0.5	0.33918	0.692248
C	C	0.5	0.345749	0.269272
C	C	0.5	0.385127	0.730706
C	C	0.5	0.437643	0.346189
C	C	0.5	0.477022	0.807623
C	C	0.5	0.48359	0.384647
C	C	0.5	0.522969	0.846081
C	C	0.5	0.37857	0.153919
C	C	0.5	0.417948	0.615353
C	C	0.5	0.424517	0.192377
C	C	0.5	0.463896	0.653811
C	C	0.5	0.516411	0.269294
C	C	0.5	0.55579	0.730728
C	C	0.5	0.562359	0.307752
C	C	0.5	0.601737	0.769186
C	C	0.5	0.457338	0.0770242
C	C	0.5	0.496717	0.538458
C	C	0.5	0.503285	0.115482
C	C	0.5	0.542664	0.576916
C	C	0.5	0.59518	0.192399
C	C	0.5	0.634558	0.653833
C	C	0.5	0.641127	0.230857
C	C	0.5	0.536106	0.000129184
C	C	0.5	0.575485	0.461563
C	C	0.5	0.614863	0.922997
C	C	0.5	0.582053	0.0385873
C	C	0.5	0.621432	0.500021
C	C	0.5	0.660811	0.961455
C	C	0.5	0.673948	0.115504
C	C	0.5	0.654253	0.384668
H	H	0.5	0.290784	0.508916
H	H	0.5	0.330165	0.970328
H	H	0.5	0.313986	0.780794
H	H	0.5	0.310479	0.239752
H	H	0.5	0.669828	0.683353
H	H	0.5	0.686004	0.87291
H	H	0.5	0.709216	0.145047
H	H	0.5	0.689522	0.414189
