data_global
_cell_length_a 10
_cell_length_b 26.85
_cell_length_c 4.26
_cell_angle_alpha 90
_cell_angle_beta 90
_cell_angle_gamma 90
_symmetry_space_group_name_H-M 'P -1'
loop_
_symmetry_equiv_pos_as_xyz
  'x,y,z'
loop_
_atom_site_label
_atom_site_fract_x
_atom_site_fract_y
_atom_site_fract_z
C 0.5 0.225631 0.660338
C 0.5 0.27058 0.832022
C 0.5 0.225631 0.339663
C 0.5 0.316372 0.666977
C 0.500001 0.362447 0.833942
C 0.5 0.27058 0.167978
C 0.5 0.316372 0.333023
C 0.5 0.408291 0.667056
C 0.5 0.454063 0.833134
C 0.500001 0.362447 0.166058
C 0.5 0.408291 0.332943
C 0.499999 0.5 0.666291
C 0.499999 0.545937 0.833134
C 0.5 0.454063 0.166866
C 0.499999 0.5 0.333709
C 0.5 0.591709 0.667057
C 0.5 0.637552 0.833941
C 0.499999 0.545937 0.166866
C 0.5 0.591709 0.332943
C 0.500001 0.683628 0.666975
C 0.500001 0.72942 0.832021
C 0.5 0.637552 0.166058
C 0.5 0.683628 0.333025
C 0.5 0.774369 0.660336
C 0.500001 0.72942 0.167979
C 0.500001 0.774369 0.339664
H 0.5 0.190038 0.781777
H 0.499999 0.190038 0.218223
H 0.5 0.809962 0.781777
H 0.5 0.809962 0.218223
